                                  SEAWAT Version 4
      U.S. GEOLOGICAL SURVEY MODULAR FINITE-DIFFERENCE GROUND-WATER FLOW MODEL
                           VERSION 4.00.05 10/19/2012


 This model run combines GLOBAL and LIST output into this single file.

 GLOBAL LISTING FILE: SeawatBoxModel.list
                         UNIT    2

 OPENING SeawatBoxModel.dis
 FILE TYPE:DIS   UNIT   11   STATUS:OLD    
 FORMAT:FORMATTED              ACCESS:SEQUENTIAL          

 OPENING SeawatBoxModel.bas
 FILE TYPE:BAS6   UNIT   13   STATUS:OLD    
 FORMAT:FORMATTED              ACCESS:SEQUENTIAL          

 OPENING SeawatBoxModel.lpf
 FILE TYPE:LPF   UNIT   15   STATUS:OLD    
 FORMAT:FORMATTED              ACCESS:SEQUENTIAL          

 OPENING SeawatBoxModel.pcg
 FILE TYPE:PCG   UNIT   27   STATUS:OLD    
 FORMAT:FORMATTED              ACCESS:SEQUENTIAL          

 OPENING SeawatBoxModel.oc
 FILE TYPE:OC   UNIT   14   STATUS:OLD    
 FORMAT:FORMATTED              ACCESS:SEQUENTIAL          

 OPENING SeawatBoxModel.wel
 FILE TYPE:WEL   UNIT   20   STATUS:OLD    
 FORMAT:FORMATTED              ACCESS:SEQUENTIAL          

 OPENING SeawatBoxModel.btn
 FILE TYPE:BTN   UNIT   31   STATUS:OLD    
 FORMAT:FORMATTED              ACCESS:SEQUENTIAL          

 OPENING SeawatBoxModel.adv
 FILE TYPE:ADV   UNIT   32   STATUS:OLD    
 FORMAT:FORMATTED              ACCESS:SEQUENTIAL          

 OPENING SeawatBoxModel.dsp
 FILE TYPE:DSP   UNIT   33   STATUS:OLD    
 FORMAT:FORMATTED              ACCESS:SEQUENTIAL          

 OPENING SeawatBoxModel.gcg
 FILE TYPE:GCG   UNIT   35   STATUS:OLD    
 FORMAT:FORMATTED              ACCESS:SEQUENTIAL          

 OPENING SeawatBoxModel.ssm
 FILE TYPE:SSM   UNIT   34   STATUS:OLD    
 FORMAT:FORMATTED              ACCESS:SEQUENTIAL          

 OPENING SeawatBoxModel.vdf
 FILE TYPE:VDF   UNIT   37   STATUS:OLD    
 FORMAT:FORMATTED              ACCESS:SEQUENTIAL          

 OPENING SeawatBoxModel.cbc
 FILE TYPE:DATA(BINARY)   UNIT   53   STATUS:REPLACE
 FORMAT:BINARY                 ACCESS:SEQUENTIAL          

 OPENING SeawatBoxModel.hds
 FILE TYPE:DATA(BINARY)   UNIT   51   STATUS:REPLACE
 FORMAT:BINARY                 ACCESS:SEQUENTIAL          

 THE FREE FORMAT OPTION HAS BEEN SELECTED

 DISCRETIZATION INPUT DATA READ FROM UNIT   11
 # DIS package for  SEAWAT, generated by Flopy.
   10 LAYERS        50 ROWS         5 COLUMNS
    1 STRESS PERIOD(S) IN SIMULATION
 MODEL TIME UNIT IS DAYS
 MODEL LENGTH UNIT IS METERS
  ----- 
 | M T | ## BTN for MT3DMS, generated by Flopy.                                          
 | 3 D | ##                                                                              
  ----- 
 THE TRANSPORT MODEL CONSISTS OF    10 LAYER(S)   50 ROW(S)    5 COLUMN(S)
 NUMBER OF STRESS PERIOD(S) FOR TRANSPORT SIMULATION =    1
 NUMBER OF ALL COMPONENTS INCLUDED IN SIMULATION =    1
 NUMBER OF MOBILE COMPONENTS INCLUDED IN SIMULATION =    1
 UNIT FOR TIME IS D   ;  UNIT FOR LENGTH IS M   ;  UNIT FOR MASS IS KG  
 OPTIONAL PACKAGES INCLUDED IN CURRENT SIMULATION:
  o ADV   ON UNIT 32
  o DSP   ON UNIT 33
  o SSM   ON UNIT 34
  o GCG   ON UNIT 35


 VDF -- VARIABLE DENSITY FLOW, VERSION 1, 2/13/2004
         INPUT READ FROM UNIT 37

 COUPLING BETWEEN FLOW AND TRANSPORT IS EXPLICIT
 VARIABLE-DENSITY WATER-TABLE CORRECTIONS NOT ADDED
 MT3DMS SPECIES USED IN EQUATION OF STATE FOR FLUID DENSITY:          1
 AN UPSTREAM-WEIGHTED ALGORITHM IS USED TO CALCULATE FLUID DENSITY TERMS THAT CONSERVE MASS
  1000.     REFERENCE DENSITY
 0.7143     DENSITY SLOPE FOR EQUATION OF STATE
 DENSITY EQUATION OF STATE
 RHO =     1000.00    
  + 0.7143     * ( CONC(   1) -  0.000     )



 FIRSTDT SPECIFIED BY USER IN THE VDF FILE IS:   0.1000000E-02
 THE GROUND-WATER TRANSPORT PROCESS IS INACTIVE

 THE OBSERVATION PROCESS IS INACTIVE
 THE SENSITIVITY PROCESS IS INACTIVE
 THE PARAMETER-ESTIMATION PROCESS IS INACTIVE

 MODE: FORWARD

  Confining bed flag for each layer:
   0   0   0   0   0   0   0   0   0   0

      22555  ELEMENTS OF GX ARRAY USED OUT OF      22555
       2500  ELEMENTS OF GZ ARRAY USED OUT OF       2500
       2500  ELEMENTS OF IG ARRAY USED OUT OF       2500

                     DELR =   20.0000    

                     DELC =   10.0000    

 TOP ELEVATION OF LAYER 1 =   1.00000    

   MODEL LAYER BOTTOM EL. =  -4.00000     FOR LAYER   1

   MODEL LAYER BOTTOM EL. =  -9.00000     FOR LAYER   2

   MODEL LAYER BOTTOM EL. =  -14.0000     FOR LAYER   3

   MODEL LAYER BOTTOM EL. =  -19.0000     FOR LAYER   4

   MODEL LAYER BOTTOM EL. =  -24.0000     FOR LAYER   5

   MODEL LAYER BOTTOM EL. =  -29.0000     FOR LAYER   6

   MODEL LAYER BOTTOM EL. =  -34.0000     FOR LAYER   7

   MODEL LAYER BOTTOM EL. =  -39.0000     FOR LAYER   8

   MODEL LAYER BOTTOM EL. =  -44.0000     FOR LAYER   9

   MODEL LAYER BOTTOM EL. =  -49.0000     FOR LAYER  10


 STRESS PERIOD     LENGTH       TIME STEPS     MULTIPLIER FOR DELT    SS FLAG
 ----------------------------------------------------------------------------
        1         50.00000         50                    1.000         SS

 STEADY-STATE SIMULATION




 LPF1 -- LAYER PROPERTY FLOW PACKAGE, VERSION 1, 1/11/2000
         INPUT READ FROM UNIT   15
 # LPF package for  SEAWAT, generated by Flopy.
 CELL-BY-CELL FLOWS WILL BE SAVED ON UNIT   53
 HEAD AT CELLS THAT CONVERT TO DRY= -1.00000E+30
 No named parameters

   LAYER FLAGS:
 LAYER       LAYTYP        LAYAVG         CHANI        LAYVKA        LAYWET
 ---------------------------------------------------------------------------
    1             0             0     1.000E+00             0             0
    2             0             0     1.000E+00             0             0
    3             0             0     1.000E+00             0             0
    4             0             0     1.000E+00             0             0
    5             0             0     1.000E+00             0             0
    6             0             0     1.000E+00             0             0
    7             0             0     1.000E+00             0             0
    8             0             0     1.000E+00             0             0
    9             0             0     1.000E+00             0             0
   10             0             0     1.000E+00             0             0

   INTERPRETATION OF LAYER FLAGS:
                        INTERBLOCK     HORIZONTAL    DATA IN
         LAYER TYPE   TRANSMISSIVITY   ANISOTROPY   ARRAY VKA   WETTABILITY
 LAYER      (LAYTYP)      (LAYAVG)       (CHANI)      (LAYVKA)      (LAYWET)
 ---------------------------------------------------------------------------
    1      CONFINED      HARMONIC     1.000E+00    VERTICAL K  NON-WETTABLE
    2      CONFINED      HARMONIC     1.000E+00    VERTICAL K  NON-WETTABLE
    3      CONFINED      HARMONIC     1.000E+00    VERTICAL K  NON-WETTABLE
    4      CONFINED      HARMONIC     1.000E+00    VERTICAL K  NON-WETTABLE
    5      CONFINED      HARMONIC     1.000E+00    VERTICAL K  NON-WETTABLE
    6      CONFINED      HARMONIC     1.000E+00    VERTICAL K  NON-WETTABLE
    7      CONFINED      HARMONIC     1.000E+00    VERTICAL K  NON-WETTABLE
    8      CONFINED      HARMONIC     1.000E+00    VERTICAL K  NON-WETTABLE
    9      CONFINED      HARMONIC     1.000E+00    VERTICAL K  NON-WETTABLE
   10      CONFINED      HARMONIC     1.000E+00    VERTICAL K  NON-WETTABLE

       5000 ELEMENTS IN X ARRAY ARE USED BY LPF
         60 ELEMENTS IN IX ARRAY ARE USED BY LPF

 PCG2 -- CONJUGATE GRADIENT SOLUTION PACKAGE, VERSION 2.4, 12/29/98
 # PCG package for  SEAWAT, generated by Flopy.
 MAXIMUM OF     50 CALLS OF SOLUTION ROUTINE
 MAXIMUM OF     30 INTERNAL ITERATIONS PER CALL TO SOLUTION ROUTINE
 MATRIX PRECONDITIONING TYPE :    1
       8000 ELEMENTS IN X ARRAY ARE USED BY PCG
      10500 ELEMENTS IN IX ARRAY ARE USED BY PCG
      10000 ELEMENTS IN Z ARRAY ARE USED BY PCG

      13000  ELEMENTS OF X ARRAY USED OUT OF      13000
      10000  ELEMENTS OF Z ARRAY USED OUT OF      10000
      10560  ELEMENTS OF IX ARRAY USED OUT OF      10560
          0  ELEMENTS OF XHS ARRAY USED OUT OF          1



                                    SOLUTION BY THE CONJUGATE-GRADIENT METHOD
                                   -------------------------------------------
                    MAXIMUM NUMBER OF CALLS TO PCG ROUTINE =       50
                        MAXIMUM ITERATIONS PER CALL TO PCG =       30
                               MATRIX PRECONDITIONING TYPE =        1
        RELAXATION FACTOR (ONLY USED WITH PRECOND. TYPE 1) =    0.10000E+01
 PARAMETER OF POLYNOMIAL PRECOND. = 2 (2) OR IS CALCULATED :        0
                         HEAD CHANGE CRITERION FOR CLOSURE =    0.10000E-03
                     RESIDUAL CHANGE CRITERION FOR CLOSURE =    0.10000E-04
            PCG HEAD AND RESIDUAL CHANGE PRINTOUT INTERVAL =      999
     PRINTING FROM SOLVER IS LIMITED(1) OR SUPPRESSED (>1) =        3
                                         DAMPING PARAMETER =    0.10000E+01

 WETTING CAPABILITY IS NOT ACTIVE IN ANY LAYER

    HYD. COND. ALONG ROWS =   864.000     FOR LAYER   1

      VERTICAL HYD. COND. =   864.000     FOR LAYER   1

    HYD. COND. ALONG ROWS =   864.000     FOR LAYER   2

      VERTICAL HYD. COND. =   864.000     FOR LAYER   2

    HYD. COND. ALONG ROWS =   864.000     FOR LAYER   3

      VERTICAL HYD. COND. =   864.000     FOR LAYER   3

    HYD. COND. ALONG ROWS =   864.000     FOR LAYER   4

      VERTICAL HYD. COND. =   864.000     FOR LAYER   4

    HYD. COND. ALONG ROWS =   864.000     FOR LAYER   5

      VERTICAL HYD. COND. =   864.000     FOR LAYER   5

    HYD. COND. ALONG ROWS =   864.000     FOR LAYER   6

      VERTICAL HYD. COND. =   864.000     FOR LAYER   6

    HYD. COND. ALONG ROWS =   864.000     FOR LAYER   7

      VERTICAL HYD. COND. =   864.000     FOR LAYER   7

    HYD. COND. ALONG ROWS =   864.000     FOR LAYER   8

      VERTICAL HYD. COND. =   864.000     FOR LAYER   8

    HYD. COND. ALONG ROWS =   864.000     FOR LAYER   9

      VERTICAL HYD. COND. =   864.000     FOR LAYER   9

    HYD. COND. ALONG ROWS =   864.000     FOR LAYER  10

      VERTICAL HYD. COND. =   864.000     FOR LAYER  10
 BTN5 -- BASIC TRANSPORT PACKAGE, VERSION 5, OCTOBER 2006, INPUT READ FROM UNIT 31
      37860 ELEMENTS OF THE  X ARRAY USED BY THE BTN PACKAGE
       2510 ELEMENTS OF THE IX ARRAY USED BY THE BTN PACKAGE

 FLOW MODEL IS STEADY-STATE

 ADV5 -- ADVECTION PACKAGE, VERSION 5, FEBRUARY 2005, INPUT READ FROM UNIT 32
 ADVECTION IS SOLVED WITH THE UPSTREAM FINITE DIFFERENCE SCHEME
 COURANT NUMBER ALLOWED IN SOLVING THE ADVECTION TERM = 0.750    
          0 ELEMENTS OF THE  X ARRAY USED BY THE ADV PACKAGE
          0 ELEMENTS OF THE IX ARRAY USED BY THE ADV PACKAGE

 DSP5 -- DISPERSION PACKAGE, VERSION 5, OCTOBER 2006, INPUT READ FROM UNIT 33
      27520 ELEMENTS OF THE  X ARRAY USED BY THE DSP PACKAGE
          0 ELEMENTS OF THE IX ARRAY USED BY THE DSP PACKAGE

 SSM5 -- SINK & SOURCE MIXING PACKAGE, VERSION 5, OCTOBER 2006, INPUT READ FROM UNIT 34
 HEADER LINE OF THE SSM PACKAGE INPUT FILE:
  T F F F F F F F F F F F F F F F                                                                                                                                                                        
 MAJOR STRESS COMPONENTS PRESENT IN THE FLOW MODEL:
  o WELL
 MAXIMUM NUMBER OF POINT SINKS/SOURCES =    3000
      39000 ELEMENTS OF THE  X ARRAY USED BY THE SSM PACKAGE
          0 ELEMENTS OF THE IX ARRAY BY THE SSM PACKAGE

 GCG5 -- GENERALIZED CONJUGATE GRADIENT SOLVER PACKAGE, VERSION 5, FEBRUARY 2005 INPUT READ FROM UNIT 35
 MAXIMUM OF    1 OUTER ITERATIONS
        AND  500 INNER ITERATIONS ALLOWED FOR CLOSURE
 THE PRECONDITIONING TYPE SELECTED IS JACOBI.
 DISPERSION CROSS TERMS LUMPED INTO RIGHT-HAND-SIDE
      38000 ELEMENTS OF THE  X ARRAY USED BY THE GCG PACKAGE
       1500 ELEMENTS OF THE IX ARRAY USED BY THE GCG PACKAGE

 
 # BAS6 package for  SEAWAT, generated by Flopy.                                 
 THE FREE FORMAT OPTION HAS BEEN SELECTED
   10 LAYERS        50 ROWS         5 COLUMNS
    1 STRESS PERIOD(S) IN SIMULATION

 BAS6 -- BASIC PACKAGE, VERSION 6, 1/11/2000 INPUT READ FROM UNIT   13
         50 ELEMENTS IN IR ARRAY ARE USED BY BAS

 WEL6 -- WELL PACKAGE, VERSION 6, 1/11/2000 INPUT READ FROM UNIT   20
 # WEL package for  SEAWAT, generated by Flopy.
 No named parameters
 MAXIMUM OF    100 ACTIVE WELLS AT ONE TIME
 CELL-BY-CELL FLOWS WILL BE SAVED ON UNIT   53
        400 ELEMENTS IN RX ARRAY ARE USED BY WEL

        400  ELEMENTS OF RX ARRAY USED OUT OF        400
          0  ELEMENTS OF RZ ARRAY USED OUT OF          1
         50  ELEMENTS OF IR ARRAY USED OUT OF         50
1
 # BAS6 package for  SEAWAT, generated by Flopy.                                 
                                                                                 



                     BOUNDARY ARRAY FOR LAYER   1
 READING ON UNIT   13 WITH FORMAT:              (5I10) 



                     BOUNDARY ARRAY FOR LAYER   2
 READING ON UNIT   13 WITH FORMAT:              (5I10) 



                     BOUNDARY ARRAY FOR LAYER   3
 READING ON UNIT   13 WITH FORMAT:              (5I10) 



                     BOUNDARY ARRAY FOR LAYER   4
 READING ON UNIT   13 WITH FORMAT:              (5I10) 



                     BOUNDARY ARRAY FOR LAYER   5
 READING ON UNIT   13 WITH FORMAT:              (5I10) 



                     BOUNDARY ARRAY FOR LAYER   6
 READING ON UNIT   13 WITH FORMAT:              (5I10) 



                     BOUNDARY ARRAY FOR LAYER   7
 READING ON UNIT   13 WITH FORMAT:              (5I10) 



                     BOUNDARY ARRAY FOR LAYER   8
 READING ON UNIT   13 WITH FORMAT:              (5I10) 



                     BOUNDARY ARRAY FOR LAYER   9
 READING ON UNIT   13 WITH FORMAT:              (5I10) 



                     BOUNDARY ARRAY FOR LAYER  10
 READING ON UNIT   13 WITH FORMAT:              (5I10) 

 AQUIFER HEAD WILL BE SET TO -999.99     AT ALL NO-FLOW NODES (IBOUND=0).

             INITIAL HEAD =   0.00000     FOR LAYER   1

             INITIAL HEAD =   0.00000     FOR LAYER   2

             INITIAL HEAD =   0.00000     FOR LAYER   3

             INITIAL HEAD =   0.00000     FOR LAYER   4

             INITIAL HEAD =   0.00000     FOR LAYER   5

             INITIAL HEAD =   0.00000     FOR LAYER   6

             INITIAL HEAD =   0.00000     FOR LAYER   7

             INITIAL HEAD =   0.00000     FOR LAYER   8

             INITIAL HEAD =   0.00000     FOR LAYER   9

             INITIAL HEAD =   0.00000     FOR LAYER  10
 # OC package for  SEAWAT, generated by Flopy.

 OUTPUT CONTROL IS SPECIFIED ONLY AT TIME STEPS FOR WHICH OUTPUT IS DESIRED
 COMPACT CELL-BY-CELL BUDGET FILES WILL BE WRITTEN
 AUXILIARY DATA WILL BE SAVED IN CELL-BY-CELL BUDGET FILES
 HEAD PRINT FORMAT CODE IS   0    DRAWDOWN PRINT FORMAT CODE IS   0
 HEADS WILL BE SAVED ON UNIT   51    DRAWDOWNS WILL BE SAVED ON UNIT    0


     0 Well parameters
 LAYER NUMBER  AQUIFER TYPE
 ------------  ------------
       1            0
       2            0
       3            0
       4            0
       5            0
       6            0
       7            0
       8            0
       9            0
      10            0
                                       WIDTH ALONG ROWS (DELR)  =   20.00000    
                                       WIDTH ALONG COLS (DELC)  =   10.00000    
                                       TOP ELEV. OF 1ST LAYER   =   1.000000    
                                       CELL THICKNESS (DZ)      =   5.000000     FOR LAYER  1
                                       CELL THICKNESS (DZ)      =   5.000000     FOR LAYER  2
                                       CELL THICKNESS (DZ)      =   5.000000     FOR LAYER  3
                                       CELL THICKNESS (DZ)      =   5.000000     FOR LAYER  4
                                       CELL THICKNESS (DZ)      =   5.000000     FOR LAYER  5
                                       CELL THICKNESS (DZ)      =   5.000000     FOR LAYER  6
                                       CELL THICKNESS (DZ)      =   5.000000     FOR LAYER  7
                                       CELL THICKNESS (DZ)      =   5.000000     FOR LAYER  8
                                       CELL THICKNESS (DZ)      =   5.000000     FOR LAYER  9
                                       CELL THICKNESS (DZ)      =   5.000000     FOR LAYER 10
                                       POROSITY                 =  0.3500000     FOR LAYER  1
                                       POROSITY                 =  0.3500000     FOR LAYER  2
                                       POROSITY                 =  0.3500000     FOR LAYER  3
                                       POROSITY                 =  0.3500000     FOR LAYER  4
                                       POROSITY                 =  0.3500000     FOR LAYER  5
                                       POROSITY                 =  0.3500000     FOR LAYER  6
                                       POROSITY                 =  0.3500000     FOR LAYER  7
                                       POROSITY                 =  0.3500000     FOR LAYER  8
                                       POROSITY                 =  0.3500000     FOR LAYER  9
                                       POROSITY                 =  0.3500000     FOR LAYER 10
                                       CONCN. BOUNDARY ARRAY    =              1 FOR LAYER  1
                                       CONCN. BOUNDARY ARRAY    =              1 FOR LAYER  2
                                       CONCN. BOUNDARY ARRAY    =              1 FOR LAYER  3
                                       CONCN. BOUNDARY ARRAY    =              1 FOR LAYER  4
                                       CONCN. BOUNDARY ARRAY    =              1 FOR LAYER  5
                                       CONCN. BOUNDARY ARRAY    =              1 FOR LAYER  6
                                       CONCN. BOUNDARY ARRAY    =              1 FOR LAYER  7
                                       CONCN. BOUNDARY ARRAY    =              1 FOR LAYER  8
                                       CONCN. BOUNDARY ARRAY    =              1 FOR LAYER  9
                                       CONCN. BOUNDARY ARRAY    =              1 FOR LAYER 10
                                       INITIAL CONC.: COMP.  01 =   35.00000     FOR LAYER  1
                                       INITIAL CONC.: COMP.  01 =   35.00000     FOR LAYER  2
                                       INITIAL CONC.: COMP.  01 =   35.00000     FOR LAYER  3
                                       INITIAL CONC.: COMP.  01 =   35.00000     FOR LAYER  4
                                       INITIAL CONC.: COMP.  01 =   35.00000     FOR LAYER  5
                                       INITIAL CONC.: COMP.  01 =   35.00000     FOR LAYER  6
                                       INITIAL CONC.: COMP.  01 =   35.00000     FOR LAYER  7
                                       INITIAL CONC.: COMP.  01 =   35.00000     FOR LAYER  8
                                       INITIAL CONC.: COMP.  01 =   35.00000     FOR LAYER  9
                                       INITIAL CONC.: COMP.  01 =   35.00000     FOR LAYER 10

 VALUE INDICATING INACTIVE CONCENTRATION CELLS =   0.1000000E+31
 MINIMUM SATURATED THICKNESS [THKMIN] ALLOWED =  0.0100 OF TOTAL CELL THICKNESS


 OUTPUT CONTROL OPTIONS
 ----------------------

 DO NOT PRINT CELL CONCENTRATION
 DO NOT PRINT PARTICLE NUMBER IN EACH CELL
 DO NOT PRINT RETARDATION FACTOR
 DO NOT PRINT DISPERSION COEFFICIENT
 SAVE DISSOLVED PHASE CONCENTRATIONS IN UNFORMATTED FILES [MT3Dnnn.UCN]
  FOR EACH SPECIES ON UNITS 201 AND ABOVE

 SIMULATION RESULTS ARE SAVED EVERY   5 TRANSPORT STEP(S)

 NUMBER OF OBSERVATION POINTS =    0

 SAVE ONE-LINE SUMMARY OF MASS BUDGETS IN FILES [MT3Dnnn.MAS]
  FOR EACH SPECIES ON UNITS 601 AND ABOVE, EVERY  1 TRANSPORT STEPS

 MAXIMUM LENGTH ALONG THE X (J) AXIS =   100.0000    
 MAXIMUM LENGTH ALONG THE Y (I) AXIS =   500.0000    
 MAXIMUM LENGTH ALONG THE Z (K) AXIS =   50.00000    


 ADVECTION SOLUTION OPTIONS
 --------------------------

 ADVECTION IS SOLVED WITH THE UPSTREAM FINITE DIFFERENCE SCHEME
 COURANT NUMBER ALLOWED IN SOLVING THE ADVECTION TERM = 0.750    


 DISPERSION INPUT PARAMETERS
 ---------------------------

                                       LONG. DISPERSIVITY (AL)  =   0.000000     FOR LAYER  1
                                       LONG. DISPERSIVITY (AL)  =   0.000000     FOR LAYER  2
                                       LONG. DISPERSIVITY (AL)  =   0.000000     FOR LAYER  3
                                       LONG. DISPERSIVITY (AL)  =   0.000000     FOR LAYER  4
                                       LONG. DISPERSIVITY (AL)  =   0.000000     FOR LAYER  5
                                       LONG. DISPERSIVITY (AL)  =   0.000000     FOR LAYER  6
                                       LONG. DISPERSIVITY (AL)  =   0.000000     FOR LAYER  7
                                       LONG. DISPERSIVITY (AL)  =   0.000000     FOR LAYER  8
                                       LONG. DISPERSIVITY (AL)  =   0.000000     FOR LAYER  9
                                       LONG. DISPERSIVITY (AL)  =   0.000000     FOR LAYER 10
                                       H. TRANS./LONG. DISP.    =   1.000000    
                                       V. TRANS./LONG. DISP.    =   1.000000    
                                       DIFFUSION COEFFICIENT    =  0.5702400    



                                               SOLUTION BY THE GENERALIZED CONJUGATE GRADIENT METHOD
                                               -----------------------------------------------------
                                     MAXIMUM OUTER ITERATIONS ALLOWED FOR CLOSURE =        1
                                     MAXIMUM INNER ITERATIONS ALLOWED FOR CLOSURE =      500
                                                    PRECONDITIONING TYPE SELECTED =    1
                                                           ACCELERATION PARAMETER =     1.0000    
                                       CONCENTRATION CHANGE CRITERION FOR CLOSURE =    0.10000E-03
                                       GCG CONCENTRATION CHANGE PRINTOUT INTERVAL =      999


                                   ++++++++++++++++++++++++++++++++++++++++++++++++++++++++++++++
                                                       STRESS PERIOD NO.  001
                                   ++++++++++++++++++++++++++++++++++++++++++++++++++++++++++++++


 LENGTH OF CURRENT STRESS PERIOD =   50.00000    
 NUMBER OF TIME STEPS FOR CURRENT STRESS PERIOD =   50
 TIME STEP MULTIPLIER USED IN FLOW SOLUTION =   1.000000    
 USER-SPECIFIED TRANSPORT STEPSIZE =   0.000000    D   
 MAXIMUM NUMBER OF TRANSPORT STEPS ALLOWED  IN ONE FLOW TIME STEP =     50000
 MULTIPLIER FOR SUCCESSIVE TRANSPORT STEPS  [USED IN IMPLICIT SCHEMES] =     1.000
 MAXIMUM TRANSPORT STEP SIZE  [USED IN IMPLICIT SCHEMES] =   0.000000    D   
1
                            STRESS PERIOD NO.    1, LENGTH =   50.00000    
                            -----------------------------------------------

                              NUMBER OF TIME STEPS =    50

                               MULTIPLIER FOR DELT =     1.000

                            INITIAL TIME STEP SIZE =   1.000000    

       NO    LAYER   ROW   COLUMN   CONCENTRATION       TYPE            COMPONENT
       2       1      50       1       35.00000         CONSTANT HEAD       1
       4       2      50       1       35.00000         CONSTANT HEAD       1
       6       3      50       1       35.00000         CONSTANT HEAD       1
       8       4      50       1       35.00000         CONSTANT HEAD       1
      10       5      50       1       35.00000         CONSTANT HEAD       1
      12       6      50       1       35.00000         CONSTANT HEAD       1
      14       7      50       1       35.00000         CONSTANT HEAD       1
      16       8      50       1       35.00000         CONSTANT HEAD       1
      18       9      50       1       35.00000         CONSTANT HEAD       1
      20      10      50       1       35.00000         CONSTANT HEAD       1
      22       1      50       2       35.00000         CONSTANT HEAD       1
      24       2      50       2       35.00000         CONSTANT HEAD       1
      26       3      50       2       35.00000         CONSTANT HEAD       1
      28       4      50       2       35.00000         CONSTANT HEAD       1
      30       5      50       2       35.00000         CONSTANT HEAD       1
      32       6      50       2       35.00000         CONSTANT HEAD       1
      34       7      50       2       35.00000         CONSTANT HEAD       1
      36       8      50       2       35.00000         CONSTANT HEAD       1
      38       9      50       2       35.00000         CONSTANT HEAD       1
      40      10      50       2       35.00000         CONSTANT HEAD       1
      42       1      50       3       35.00000         CONSTANT HEAD       1
      44       2      50       3       35.00000         CONSTANT HEAD       1
      46       3      50       3       35.00000         CONSTANT HEAD       1
      48       4      50       3       35.00000         CONSTANT HEAD       1
      50       5      50       3       35.00000         CONSTANT HEAD       1
      52       6      50       3       35.00000         CONSTANT HEAD       1
      54       7      50       3       35.00000         CONSTANT HEAD       1
      56       8      50       3       35.00000         CONSTANT HEAD       1
      58       9      50       3       35.00000         CONSTANT HEAD       1
      60      10      50       3       35.00000         CONSTANT HEAD       1
      62       1      50       4       35.00000         CONSTANT HEAD       1
      64       2      50       4       35.00000         CONSTANT HEAD       1
      66       3      50       4       35.00000         CONSTANT HEAD       1
      68       4      50       4       35.00000         CONSTANT HEAD       1
      70       5      50       4       35.00000         CONSTANT HEAD       1
      72       6      50       4       35.00000         CONSTANT HEAD       1
      74       7      50       4       35.00000         CONSTANT HEAD       1
      76       8      50       4       35.00000         CONSTANT HEAD       1
      78       9      50       4       35.00000         CONSTANT HEAD       1
      80      10      50       4       35.00000         CONSTANT HEAD       1
      82       1      50       5       35.00000         CONSTANT HEAD       1
      84       2      50       5       35.00000         CONSTANT HEAD       1
      86       3      50       5       35.00000         CONSTANT HEAD       1
      88       4      50       5       35.00000         CONSTANT HEAD       1
      90       5      50       5       35.00000         CONSTANT HEAD       1
      92       6      50       5       35.00000         CONSTANT HEAD       1
      94       7      50       5       35.00000         CONSTANT HEAD       1
      96       8      50       5       35.00000         CONSTANT HEAD       1
      98       9      50       5       35.00000         CONSTANT HEAD       1
     100      10      50       5       35.00000         CONSTANT HEAD       1

 WELL NO.  LAYER   ROW   COL   STRESS RATE         
 --------------------------------------------------
      1      1      1      1       5.072    
      2      1     36      4      -2.536    
      3      2      1      1       5.072    
      4      2     36      4      -2.536    
      5      3      1      1       5.072    
      6      3     36      4      -2.536    
      7      4      1      1       5.072    
      8      4     36      4      -2.536    
      9      5      1      1       5.072    
     10      5     36      4      -2.536    
     11      6      1      1       5.072    
     12      6     36      4      -2.536    
     13      7      1      1       5.072    
     14      7     36      4      -2.536    
     15      8      1      1       5.072    
     16      8     36      4      -2.536    
     17      9      1      1       5.072    
     18      9     36      4      -2.536    
     19     10      1      1       5.072    
     20     10     36      4      -2.536    
     21      1      1      2       5.072    
     22      1     36      4      -2.536    
     23      2      1      2       5.072    
     24      2     36      4      -2.536    
     25      3      1      2       5.072    
     26      3     36      4      -2.536    
     27      4      1      2       5.072    
     28      4     36      4      -2.536    
     29      5      1      2       5.072    
     30      5     36      4      -2.536    
     31      6      1      2       5.072    
     32      6     36      4      -2.536    
     33      7      1      2       5.072    
     34      7     36      4      -2.536    
     35      8      1      2       5.072    
     36      8     36      4      -2.536    
     37      9      1      2       5.072    
     38      9     36      4      -2.536    
     39     10      1      2       5.072    
     40     10     36      4      -2.536    
     41      1      1      3       5.072    
     42      1     36      4      -2.536    
     43      2      1      3       5.072    
     44      2     36      4      -2.536    
     45      3      1      3       5.072    
     46      3     36      4      -2.536    
     47      4      1      3       5.072    
     48      4     36      4      -2.536    
     49      5      1      3       5.072    
     50      5     36      4      -2.536    
     51      6      1      3       5.072    
     52      6     36      4      -2.536    
     53      7      1      3       5.072    
     54      7     36      4      -2.536    
     55      8      1      3       5.072    
     56      8     36      4      -2.536    
     57      9      1      3       5.072    
     58      9     36      4      -2.536    
     59     10      1      3       5.072    
     60     10     36      4      -2.536    
     61      1      1      4       5.072    
     62      1     36      4      -2.536    
     63      2      1      4       5.072    
     64      2     36      4      -2.536    
     65      3      1      4       5.072    
     66      3     36      4      -2.536    
     67      4      1      4       5.072    
     68      4     36      4      -2.536    
     69      5      1      4       5.072    
     70      5     36      4      -2.536    
     71      6      1      4       5.072    
     72      6     36      4      -2.536    
     73      7      1      4       5.072    
     74      7     36      4      -2.536    
     75      8      1      4       5.072    
     76      8     36      4      -2.536    
     77      9      1      4       5.072    
     78      9     36      4      -2.536    
     79     10      1      4       5.072    
     80     10     36      4      -2.536    
     81      1      1      5       5.072    
     82      1     36      4      -2.536    
     83      2      1      5       5.072    
     84      2     36      4      -2.536    
     85      3      1      5       5.072    
     86      3     36      4      -2.536    
     87      4      1      5       5.072    
     88      4     36      4      -2.536    
     89      5      1      5       5.072    
     90      5     36      4      -2.536    
     91      6      1      5       5.072    
     92      6     36      4      -2.536    
     93      7      1      5       5.072    
     94      7     36      4      -2.536    
     95      8      1      5       5.072    
     96      8     36      4      -2.536    
     97      9      1      5       5.072    
     98      9     36      4      -2.536    
     99     10      1      5       5.072    
    100     10     36      4      -2.536    

    100 WELLS


                                          ================================================
                                                         FROM TIME =   0.0000     TO    1.0000    

 
 SOLVING FOR HEAD 
 FLOW MODEL IS STEADY-STATE
 FLOW MODEL CONTAINS CONSTANT-HEAD CELLS


 MAXIMUM STEPSIZE DURING WHICH ANY PARTICLE CANNOT MOVE MORE THAN ONE CELL
 =  47.09    (WHEN MIN. R.F.=1)  AT K=   1, I=  35, J=   4

 MAXIMUM STEPSIZE WHICH MEETS STABILITY CRITERION OF THE ADVECTION TERM
 (FOR PURE FINITE-DIFFERENCE OPTION, MIXELM=0) 
 =  34.10    (WHEN MIN. R.F.=1)  AT K=   4, I=  36, J=   4


 TOTAL NUMBER OF POINT SOURCES/SINKS PRESENT IN THE FLOW MODEL =   150

 MAXIMUM STEPSIZE WHICH MEETS STABILITY CRITERION OF THE SINK & SOURCE TERM
 =  69.01    (WHEN MIN. R.F.=1)  AT K=   1, I=   1, J=   1

 MAXIMUM STEPSIZE WHICH MEETS STABILITY CRITERION OF THE DISPERSION TERM
 =  16.70    (WHEN MIN. R.F.=1)  AT K=   1, I=   1, J=   1


     1 CALLS TO GCG PACKAGE FOR TRANSPORT TIME STEP   1 IN FLOW TIME STEP   1 STRESS PERIOD   1
     1 TOTAL ITERATIONS

 OUTPUT CONTROL FOR STRESS PERIOD    1   TIME STEP   1
    SAVE HEAD FOR ALL LAYERS
    SAVE BUDGET
 
 SOLVING FOR HEAD 
 FLOW MODEL IS STEADY-STATE
 FLOW MODEL CONTAINS CONSTANT-HEAD CELLS


 MAXIMUM STEPSIZE DURING WHICH ANY PARTICLE CANNOT MOVE MORE THAN ONE CELL
 =  46.33    (WHEN MIN. R.F.=1)  AT K=   6, I=  35, J=   4

 MAXIMUM STEPSIZE WHICH MEETS STABILITY CRITERION OF THE ADVECTION TERM
 (FOR PURE FINITE-DIFFERENCE OPTION, MIXELM=0) 
 =  33.71    (WHEN MIN. R.F.=1)  AT K=   8, I=  36, J=   4


 TOTAL NUMBER OF POINT SOURCES/SINKS PRESENT IN THE FLOW MODEL =   150

 MAXIMUM STEPSIZE WHICH MEETS STABILITY CRITERION OF THE SINK & SOURCE TERM
 =  69.01    (WHEN MIN. R.F.=1)  AT K=   1, I=   1, J=   1

 MAXIMUM STEPSIZE WHICH MEETS STABILITY CRITERION OF THE DISPERSION TERM
 =  16.70    (WHEN MIN. R.F.=1)  AT K=   1, I=   1, J=   1
     1 CALLS TO GCG PACKAGE FOR TRANSPORT TIME STEP   2 IN FLOW TIME STEP   1 STRESS PERIOD   1
     3 TOTAL ITERATIONS
  MAXIMUM CONCENTRATION CHANGES FOR EACH ITERATION:
  MAX. CHANGE LAYER,ROW,COL MAX. CHANGE LAYER,ROW,COL MAX. CHANGE LAYER,ROW,COL MAX. CHANGE LAYER,ROW,COL MAX. CHANGE LAYER,ROW,COL
 ------------------------------------------------------------------------------------------------------------------------------------
   0.1444E-01 ( 10,  1,  1)  0.2844E-03 (  1,  2,  5)  0.8074E-05 (  2,  2,  4)
 UBDSV2 SAVING "   CONSTANT HEAD" ON UNIT  53 AT TIME STEP  1, STRESS PERIOD   1
 UBDSV1 SAVING "FLOW RIGHT FACE " ON UNIT  53 AT TIME STEP  1, STRESS PERIOD   1
 UBDSV1 SAVING "FLOW FRONT FACE " ON UNIT  53 AT TIME STEP  1, STRESS PERIOD   1
 UBDSV1 SAVING "FLOW LOWER FACE " ON UNIT  53 AT TIME STEP  1, STRESS PERIOD   1
 UBDSV4 SAVING "           WELLS" ON UNIT  53 AT TIME STEP  1, STRESS PERIOD   1
 UBDSV1 SAVING "            DCDT" ON UNIT  53 AT TIME STEP  1, STRESS PERIOD   1

 HEAD WILL BE SAVED ON UNIT   51 AT END OF TIME STEP   1, STRESS PERIOD    1


                                          ================================================
                                                         FROM TIME =   1.0000     TO    2.0000    

 
 SOLVING FOR HEAD 
 FLOW MODEL IS STEADY-STATE
 FLOW MODEL CONTAINS CONSTANT-HEAD CELLS


 MAXIMUM STEPSIZE DURING WHICH ANY PARTICLE CANNOT MOVE MORE THAN ONE CELL
 =  9.389    (WHEN MIN. R.F.=1)  AT K=   6, I=   1, J=   3

 MAXIMUM STEPSIZE WHICH MEETS STABILITY CRITERION OF THE ADVECTION TERM
 (FOR PURE FINITE-DIFFERENCE OPTION, MIXELM=0) 
 =  9.279    (WHEN MIN. R.F.=1)  AT K=   5, I=   1, J=   3


 TOTAL NUMBER OF POINT SOURCES/SINKS PRESENT IN THE FLOW MODEL =   150

 MAXIMUM STEPSIZE WHICH MEETS STABILITY CRITERION OF THE SINK & SOURCE TERM
 =  69.01    (WHEN MIN. R.F.=1)  AT K=   1, I=   1, J=   1

 MAXIMUM STEPSIZE WHICH MEETS STABILITY CRITERION OF THE DISPERSION TERM
 =  16.70    (WHEN MIN. R.F.=1)  AT K=   1, I=   1, J=   1


     1 CALLS TO GCG PACKAGE FOR TRANSPORT TIME STEP   1 IN FLOW TIME STEP   2 STRESS PERIOD   1
     3 TOTAL ITERATIONS
  MAXIMUM CONCENTRATION CHANGES FOR EACH ITERATION:
  MAX. CHANGE LAYER,ROW,COL MAX. CHANGE LAYER,ROW,COL MAX. CHANGE LAYER,ROW,COL MAX. CHANGE LAYER,ROW,COL MAX. CHANGE LAYER,ROW,COL
 ------------------------------------------------------------------------------------------------------------------------------------
   0.1447E-01 (  1,  1,  1)  0.1180E-02 ( 10,  1,  1)  0.6815E-04 (  9,  1,  1)

 NO OUTPUT CONTROL FOR STRESS PERIOD    1   TIME STEP   2


                                          ================================================
                                                         FROM TIME =   2.0000     TO    3.0000    

 
 SOLVING FOR HEAD 
 FLOW MODEL IS STEADY-STATE
 FLOW MODEL CONTAINS CONSTANT-HEAD CELLS


 MAXIMUM STEPSIZE DURING WHICH ANY PARTICLE CANNOT MOVE MORE THAN ONE CELL
 =  4.763    (WHEN MIN. R.F.=1)  AT K=   6, I=   1, J=   1

 MAXIMUM STEPSIZE WHICH MEETS STABILITY CRITERION OF THE ADVECTION TERM
 (FOR PURE FINITE-DIFFERENCE OPTION, MIXELM=0) 
 =  4.711    (WHEN MIN. R.F.=1)  AT K=   6, I=   1, J=   5


 TOTAL NUMBER OF POINT SOURCES/SINKS PRESENT IN THE FLOW MODEL =   150

 MAXIMUM STEPSIZE WHICH MEETS STABILITY CRITERION OF THE SINK & SOURCE TERM
 =  69.01    (WHEN MIN. R.F.=1)  AT K=   1, I=   1, J=   1

 MAXIMUM STEPSIZE WHICH MEETS STABILITY CRITERION OF THE DISPERSION TERM
 =  16.70    (WHEN MIN. R.F.=1)  AT K=   1, I=   1, J=   1


     1 CALLS TO GCG PACKAGE FOR TRANSPORT TIME STEP   1 IN FLOW TIME STEP   3 STRESS PERIOD   1
     5 TOTAL ITERATIONS
  MAXIMUM CONCENTRATION CHANGES FOR EACH ITERATION:
  MAX. CHANGE LAYER,ROW,COL MAX. CHANGE LAYER,ROW,COL MAX. CHANGE LAYER,ROW,COL MAX. CHANGE LAYER,ROW,COL MAX. CHANGE LAYER,ROW,COL
 ------------------------------------------------------------------------------------------------------------------------------------
   0.1449E-01 (  1,  1,  5)  0.1723E-02 ( 10,  1,  1)  0.3831E-03 (  9,  1,  1)  0.2036E-03 (  9,  1,  1)  0.7133E-05 (  8,  1,  1)

 NO OUTPUT CONTROL FOR STRESS PERIOD    1   TIME STEP   3


                                          ================================================
                                                         FROM TIME =   3.0000     TO    4.0000    

 
 SOLVING FOR HEAD 
 FLOW MODEL IS STEADY-STATE
 FLOW MODEL CONTAINS CONSTANT-HEAD CELLS


 MAXIMUM STEPSIZE DURING WHICH ANY PARTICLE CANNOT MOVE MORE THAN ONE CELL
 =  3.240    (WHEN MIN. R.F.=1)  AT K=   6, I=   1, J=   5

 MAXIMUM STEPSIZE WHICH MEETS STABILITY CRITERION OF THE ADVECTION TERM
 (FOR PURE FINITE-DIFFERENCE OPTION, MIXELM=0) 
 =  3.205    (WHEN MIN. R.F.=1)  AT K=   6, I=   1, J=   5


 TOTAL NUMBER OF POINT SOURCES/SINKS PRESENT IN THE FLOW MODEL =   150

 MAXIMUM STEPSIZE WHICH MEETS STABILITY CRITERION OF THE SINK & SOURCE TERM
 =  69.01    (WHEN MIN. R.F.=1)  AT K=   1, I=   1, J=   1

 MAXIMUM STEPSIZE WHICH MEETS STABILITY CRITERION OF THE DISPERSION TERM
 =  16.70    (WHEN MIN. R.F.=1)  AT K=   1, I=   1, J=   1


     1 CALLS TO GCG PACKAGE FOR TRANSPORT TIME STEP   1 IN FLOW TIME STEP   4 STRESS PERIOD   1
     5 TOTAL ITERATIONS
  MAXIMUM CONCENTRATION CHANGES FOR EACH ITERATION:
  MAX. CHANGE LAYER,ROW,COL MAX. CHANGE LAYER,ROW,COL MAX. CHANGE LAYER,ROW,COL MAX. CHANGE LAYER,ROW,COL MAX. CHANGE LAYER,ROW,COL
 ------------------------------------------------------------------------------------------------------------------------------------
   0.1454E-01 (  1,  1,  5)  0.1836E-02 ( 10,  1,  1)  0.3630E-03 (  9,  1,  5)  0.1636E-03 (  1,  2,  5)  0.1489E-04 (  8,  1,  5)

 NO OUTPUT CONTROL FOR STRESS PERIOD    1   TIME STEP   4


                                          ================================================
                                                         FROM TIME =   4.0000     TO    5.0000    

 
 SOLVING FOR HEAD 
 FLOW MODEL IS STEADY-STATE
 FLOW MODEL CONTAINS CONSTANT-HEAD CELLS


 MAXIMUM STEPSIZE DURING WHICH ANY PARTICLE CANNOT MOVE MORE THAN ONE CELL
 =  2.500    (WHEN MIN. R.F.=1)  AT K=   6, I=   1, J=   5

 MAXIMUM STEPSIZE WHICH MEETS STABILITY CRITERION OF THE ADVECTION TERM
 (FOR PURE FINITE-DIFFERENCE OPTION, MIXELM=0) 
 =  2.470    (WHEN MIN. R.F.=1)  AT K=   6, I=   1, J=   5


 TOTAL NUMBER OF POINT SOURCES/SINKS PRESENT IN THE FLOW MODEL =   150

 MAXIMUM STEPSIZE WHICH MEETS STABILITY CRITERION OF THE SINK & SOURCE TERM
 =  69.01    (WHEN MIN. R.F.=1)  AT K=   1, I=   1, J=   1

 MAXIMUM STEPSIZE WHICH MEETS STABILITY CRITERION OF THE DISPERSION TERM
 =  16.70    (WHEN MIN. R.F.=1)  AT K=   1, I=   1, J=   1


     1 CALLS TO GCG PACKAGE FOR TRANSPORT TIME STEP   1 IN FLOW TIME STEP   5 STRESS PERIOD   1
     5 TOTAL ITERATIONS
  MAXIMUM CONCENTRATION CHANGES FOR EACH ITERATION:
  MAX. CHANGE LAYER,ROW,COL MAX. CHANGE LAYER,ROW,COL MAX. CHANGE LAYER,ROW,COL MAX. CHANGE LAYER,ROW,COL MAX. CHANGE LAYER,ROW,COL
 ------------------------------------------------------------------------------------------------------------------------------------
   0.1453E-01 (  1,  1,  5)  0.1610E-02 ( 10,  1,  1)  0.4123E-03 (  1,  2,  5)  0.1434E-03 (  1,  2,  5)  0.2173E-05 (  1,  3,  5)

 NO OUTPUT CONTROL FOR STRESS PERIOD    1   TIME STEP   5


                                          ================================================
                                                         FROM TIME =   5.0000     TO    6.0000    

 
 SOLVING FOR HEAD 
 FLOW MODEL IS STEADY-STATE
 FLOW MODEL CONTAINS CONSTANT-HEAD CELLS


 MAXIMUM STEPSIZE DURING WHICH ANY PARTICLE CANNOT MOVE MORE THAN ONE CELL
 =  2.078    (WHEN MIN. R.F.=1)  AT K=   6, I=   1, J=   5

 MAXIMUM STEPSIZE WHICH MEETS STABILITY CRITERION OF THE ADVECTION TERM
 (FOR PURE FINITE-DIFFERENCE OPTION, MIXELM=0) 
 =  2.048    (WHEN MIN. R.F.=1)  AT K=   6, I=   1, J=   5


 TOTAL NUMBER OF POINT SOURCES/SINKS PRESENT IN THE FLOW MODEL =   150

 MAXIMUM STEPSIZE WHICH MEETS STABILITY CRITERION OF THE SINK & SOURCE TERM
 =  69.01    (WHEN MIN. R.F.=1)  AT K=   1, I=   1, J=   1

 MAXIMUM STEPSIZE WHICH MEETS STABILITY CRITERION OF THE DISPERSION TERM
 =  16.70    (WHEN MIN. R.F.=1)  AT K=   1, I=   1, J=   1


     1 CALLS TO GCG PACKAGE FOR TRANSPORT TIME STEP   1 IN FLOW TIME STEP   6 STRESS PERIOD   1
     5 TOTAL ITERATIONS
  MAXIMUM CONCENTRATION CHANGES FOR EACH ITERATION:
  MAX. CHANGE LAYER,ROW,COL MAX. CHANGE LAYER,ROW,COL MAX. CHANGE LAYER,ROW,COL MAX. CHANGE LAYER,ROW,COL MAX. CHANGE LAYER,ROW,COL
 ------------------------------------------------------------------------------------------------------------------------------------
   0.1434E-01 (  1,  1,  5)  0.1693E-02 (  1,  1,  5)  0.4819E-03 (  1,  1,  5)  0.1325E-03 (  1,  1,  5)  0.2112E-04 (  1,  3,  5)

 NO OUTPUT CONTROL FOR STRESS PERIOD    1   TIME STEP   6


                                          ================================================
                                                         FROM TIME =   6.0000     TO    7.0000    

 
 SOLVING FOR HEAD 
 FLOW MODEL IS STEADY-STATE
 FLOW MODEL CONTAINS CONSTANT-HEAD CELLS


 MAXIMUM STEPSIZE DURING WHICH ANY PARTICLE CANNOT MOVE MORE THAN ONE CELL
 =  1.814    (WHEN MIN. R.F.=1)  AT K=   5, I=   1, J=   5

 MAXIMUM STEPSIZE WHICH MEETS STABILITY CRITERION OF THE ADVECTION TERM
 (FOR PURE FINITE-DIFFERENCE OPTION, MIXELM=0) 
 =  1.787    (WHEN MIN. R.F.=1)  AT K=   6, I=   1, J=   5


 TOTAL NUMBER OF POINT SOURCES/SINKS PRESENT IN THE FLOW MODEL =   150

 MAXIMUM STEPSIZE WHICH MEETS STABILITY CRITERION OF THE SINK & SOURCE TERM
 =  69.01    (WHEN MIN. R.F.=1)  AT K=   1, I=   1, J=   1

 MAXIMUM STEPSIZE WHICH MEETS STABILITY CRITERION OF THE DISPERSION TERM
 =  16.70    (WHEN MIN. R.F.=1)  AT K=   1, I=   1, J=   1


     1 CALLS TO GCG PACKAGE FOR TRANSPORT TIME STEP   1 IN FLOW TIME STEP   7 STRESS PERIOD   1
     5 TOTAL ITERATIONS
  MAXIMUM CONCENTRATION CHANGES FOR EACH ITERATION:
  MAX. CHANGE LAYER,ROW,COL MAX. CHANGE LAYER,ROW,COL MAX. CHANGE LAYER,ROW,COL MAX. CHANGE LAYER,ROW,COL MAX. CHANGE LAYER,ROW,COL
 ------------------------------------------------------------------------------------------------------------------------------------
   0.1393E-01 (  1,  1,  5)  0.1658E-02 (  1,  1,  5)  0.5923E-03 (  1,  1,  5)  0.1295E-03 (  1,  1,  5)  0.1968E-04 (  1,  2,  5)

 NO OUTPUT CONTROL FOR STRESS PERIOD    1   TIME STEP   7


                                          ================================================
                                                         FROM TIME =   7.0000     TO    8.0000    

 
 SOLVING FOR HEAD 
 FLOW MODEL IS STEADY-STATE
 FLOW MODEL CONTAINS CONSTANT-HEAD CELLS


 MAXIMUM STEPSIZE DURING WHICH ANY PARTICLE CANNOT MOVE MORE THAN ONE CELL
 =  1.647    (WHEN MIN. R.F.=1)  AT K=   5, I=   1, J=   5

 MAXIMUM STEPSIZE WHICH MEETS STABILITY CRITERION OF THE ADVECTION TERM
 (FOR PURE FINITE-DIFFERENCE OPTION, MIXELM=0) 
 =  1.623    (WHEN MIN. R.F.=1)  AT K=   6, I=   1, J=   5


 TOTAL NUMBER OF POINT SOURCES/SINKS PRESENT IN THE FLOW MODEL =   150

 MAXIMUM STEPSIZE WHICH MEETS STABILITY CRITERION OF THE SINK & SOURCE TERM
 =  69.01    (WHEN MIN. R.F.=1)  AT K=   1, I=   1, J=   1

 MAXIMUM STEPSIZE WHICH MEETS STABILITY CRITERION OF THE DISPERSION TERM
 =  16.70    (WHEN MIN. R.F.=1)  AT K=   1, I=   1, J=   1


     1 CALLS TO GCG PACKAGE FOR TRANSPORT TIME STEP   1 IN FLOW TIME STEP   8 STRESS PERIOD   1
     4 TOTAL ITERATIONS
  MAXIMUM CONCENTRATION CHANGES FOR EACH ITERATION:
  MAX. CHANGE LAYER,ROW,COL MAX. CHANGE LAYER,ROW,COL MAX. CHANGE LAYER,ROW,COL MAX. CHANGE LAYER,ROW,COL MAX. CHANGE LAYER,ROW,COL
 ------------------------------------------------------------------------------------------------------------------------------------
   0.1377E-01 (  1,  2,  1)  0.1371E-02 (  1,  1,  5)  0.5627E-03 (  1,  1,  5)  0.9935E-04 (  1,  1,  1)

 NO OUTPUT CONTROL FOR STRESS PERIOD    1   TIME STEP   8


                                          ================================================
                                                         FROM TIME =   8.0000     TO    9.0000    

 
 SOLVING FOR HEAD 
 FLOW MODEL IS STEADY-STATE
 FLOW MODEL CONTAINS CONSTANT-HEAD CELLS


 MAXIMUM STEPSIZE DURING WHICH ANY PARTICLE CANNOT MOVE MORE THAN ONE CELL
 =  1.544    (WHEN MIN. R.F.=1)  AT K=   5, I=   1, J=   5

 MAXIMUM STEPSIZE WHICH MEETS STABILITY CRITERION OF THE ADVECTION TERM
 (FOR PURE FINITE-DIFFERENCE OPTION, MIXELM=0) 
 =  1.523    (WHEN MIN. R.F.=1)  AT K=   6, I=   1, J=   5


 TOTAL NUMBER OF POINT SOURCES/SINKS PRESENT IN THE FLOW MODEL =   150

 MAXIMUM STEPSIZE WHICH MEETS STABILITY CRITERION OF THE SINK & SOURCE TERM
 =  69.01    (WHEN MIN. R.F.=1)  AT K=   1, I=   1, J=   1

 MAXIMUM STEPSIZE WHICH MEETS STABILITY CRITERION OF THE DISPERSION TERM
 =  16.70    (WHEN MIN. R.F.=1)  AT K=   1, I=   1, J=   1


     1 CALLS TO GCG PACKAGE FOR TRANSPORT TIME STEP   1 IN FLOW TIME STEP   9 STRESS PERIOD   1
     4 TOTAL ITERATIONS
  MAXIMUM CONCENTRATION CHANGES FOR EACH ITERATION:
  MAX. CHANGE LAYER,ROW,COL MAX. CHANGE LAYER,ROW,COL MAX. CHANGE LAYER,ROW,COL MAX. CHANGE LAYER,ROW,COL MAX. CHANGE LAYER,ROW,COL
 ------------------------------------------------------------------------------------------------------------------------------------
   0.1397E-01 (  1,  2,  1)  0.1340E-02 (  2,  3,  4)  0.5660E-03 (  2,  3,  5)  0.9306E-04 (  2,  3,  5)

 NO OUTPUT CONTROL FOR STRESS PERIOD    1   TIME STEP   9


                                          ================================================
                                                         FROM TIME =   9.0000     TO    10.000    

 
 SOLVING FOR HEAD 
 FLOW MODEL IS STEADY-STATE
 FLOW MODEL CONTAINS CONSTANT-HEAD CELLS


 MAXIMUM STEPSIZE DURING WHICH ANY PARTICLE CANNOT MOVE MORE THAN ONE CELL
 =  1.483    (WHEN MIN. R.F.=1)  AT K=   5, I=   1, J=   5

 MAXIMUM STEPSIZE WHICH MEETS STABILITY CRITERION OF THE ADVECTION TERM
 (FOR PURE FINITE-DIFFERENCE OPTION, MIXELM=0) 
 =  1.464    (WHEN MIN. R.F.=1)  AT K=   5, I=   1, J=   5


 TOTAL NUMBER OF POINT SOURCES/SINKS PRESENT IN THE FLOW MODEL =   150

 MAXIMUM STEPSIZE WHICH MEETS STABILITY CRITERION OF THE SINK & SOURCE TERM
 =  69.01    (WHEN MIN. R.F.=1)  AT K=   1, I=   1, J=   1

 MAXIMUM STEPSIZE WHICH MEETS STABILITY CRITERION OF THE DISPERSION TERM
 =  16.70    (WHEN MIN. R.F.=1)  AT K=   1, I=   1, J=   1


     1 CALLS TO GCG PACKAGE FOR TRANSPORT TIME STEP   1 IN FLOW TIME STEP  10 STRESS PERIOD   1
     5 TOTAL ITERATIONS
  MAXIMUM CONCENTRATION CHANGES FOR EACH ITERATION:
  MAX. CHANGE LAYER,ROW,COL MAX. CHANGE LAYER,ROW,COL MAX. CHANGE LAYER,ROW,COL MAX. CHANGE LAYER,ROW,COL MAX. CHANGE LAYER,ROW,COL
 ------------------------------------------------------------------------------------------------------------------------------------
   0.1362E-01 (  1,  2,  1)  0.1286E-02 (  2,  3,  2)  0.6425E-03 (  2,  3,  5)  0.2258E-03 (  2,  3,  5)  0.1245E-04 (  3,  2,  5)

 NO OUTPUT CONTROL FOR STRESS PERIOD    1   TIME STEP  10


                                          ================================================
                                                         FROM TIME =   10.000     TO    11.000    

 
 SOLVING FOR HEAD 
 FLOW MODEL IS STEADY-STATE
 FLOW MODEL CONTAINS CONSTANT-HEAD CELLS


 MAXIMUM STEPSIZE DURING WHICH ANY PARTICLE CANNOT MOVE MORE THAN ONE CELL
 =  1.452    (WHEN MIN. R.F.=1)  AT K=   5, I=   1, J=   5

 MAXIMUM STEPSIZE WHICH MEETS STABILITY CRITERION OF THE ADVECTION TERM
 (FOR PURE FINITE-DIFFERENCE OPTION, MIXELM=0) 
 =  1.433    (WHEN MIN. R.F.=1)  AT K=   5, I=   1, J=   5


 TOTAL NUMBER OF POINT SOURCES/SINKS PRESENT IN THE FLOW MODEL =   150

 MAXIMUM STEPSIZE WHICH MEETS STABILITY CRITERION OF THE SINK & SOURCE TERM
 =  69.01    (WHEN MIN. R.F.=1)  AT K=   1, I=   1, J=   1

 MAXIMUM STEPSIZE WHICH MEETS STABILITY CRITERION OF THE DISPERSION TERM
 =  16.70    (WHEN MIN. R.F.=1)  AT K=   1, I=   1, J=   1


     1 CALLS TO GCG PACKAGE FOR TRANSPORT TIME STEP   1 IN FLOW TIME STEP  11 STRESS PERIOD   1
     5 TOTAL ITERATIONS
  MAXIMUM CONCENTRATION CHANGES FOR EACH ITERATION:
  MAX. CHANGE LAYER,ROW,COL MAX. CHANGE LAYER,ROW,COL MAX. CHANGE LAYER,ROW,COL MAX. CHANGE LAYER,ROW,COL MAX. CHANGE LAYER,ROW,COL
 ------------------------------------------------------------------------------------------------------------------------------------
   0.1297E-01 (  1,  2,  1)  0.1287E-02 (  3,  2,  5)  0.3553E-03 (  2,  3,  5)  0.6618E-03 (  2,  3,  5)  0.2581E-04 (  1,  3,  5)

 NO OUTPUT CONTROL FOR STRESS PERIOD    1   TIME STEP  11


                                          ================================================
                                                         FROM TIME =   11.000     TO    12.000    

 
 SOLVING FOR HEAD 
 FLOW MODEL IS STEADY-STATE
 FLOW MODEL CONTAINS CONSTANT-HEAD CELLS


 MAXIMUM STEPSIZE DURING WHICH ANY PARTICLE CANNOT MOVE MORE THAN ONE CELL
 =  1.441    (WHEN MIN. R.F.=1)  AT K=   5, I=   1, J=   5

 MAXIMUM STEPSIZE WHICH MEETS STABILITY CRITERION OF THE ADVECTION TERM
 (FOR PURE FINITE-DIFFERENCE OPTION, MIXELM=0) 
 =  1.421    (WHEN MIN. R.F.=1)  AT K=   5, I=   1, J=   5


 TOTAL NUMBER OF POINT SOURCES/SINKS PRESENT IN THE FLOW MODEL =   150

 MAXIMUM STEPSIZE WHICH MEETS STABILITY CRITERION OF THE SINK & SOURCE TERM
 =  69.01    (WHEN MIN. R.F.=1)  AT K=   1, I=   1, J=   1

 MAXIMUM STEPSIZE WHICH MEETS STABILITY CRITERION OF THE DISPERSION TERM
 =  16.70    (WHEN MIN. R.F.=1)  AT K=   1, I=   1, J=   1


     1 CALLS TO GCG PACKAGE FOR TRANSPORT TIME STEP   1 IN FLOW TIME STEP  12 STRESS PERIOD   1
     4 TOTAL ITERATIONS
  MAXIMUM CONCENTRATION CHANGES FOR EACH ITERATION:
  MAX. CHANGE LAYER,ROW,COL MAX. CHANGE LAYER,ROW,COL MAX. CHANGE LAYER,ROW,COL MAX. CHANGE LAYER,ROW,COL MAX. CHANGE LAYER,ROW,COL
 ------------------------------------------------------------------------------------------------------------------------------------
   0.1228E-01 (  1,  3,  1)  0.1302E-02 (  3,  2,  1)  0.1478E-03 (  1,  2,  5)  0.5729E-04 (  1,  3,  5)

 NO OUTPUT CONTROL FOR STRESS PERIOD    1   TIME STEP  12


                                          ================================================
                                                         FROM TIME =   12.000     TO    13.000    

 
 SOLVING FOR HEAD 
 FLOW MODEL IS STEADY-STATE
 FLOW MODEL CONTAINS CONSTANT-HEAD CELLS


 MAXIMUM STEPSIZE DURING WHICH ANY PARTICLE CANNOT MOVE MORE THAN ONE CELL
 =  1.443    (WHEN MIN. R.F.=1)  AT K=   5, I=   1, J=   5

 MAXIMUM STEPSIZE WHICH MEETS STABILITY CRITERION OF THE ADVECTION TERM
 (FOR PURE FINITE-DIFFERENCE OPTION, MIXELM=0) 
 =  1.421    (WHEN MIN. R.F.=1)  AT K=   5, I=   1, J=   5


 TOTAL NUMBER OF POINT SOURCES/SINKS PRESENT IN THE FLOW MODEL =   150

 MAXIMUM STEPSIZE WHICH MEETS STABILITY CRITERION OF THE SINK & SOURCE TERM
 =  69.01    (WHEN MIN. R.F.=1)  AT K=   1, I=   1, J=   1

 MAXIMUM STEPSIZE WHICH MEETS STABILITY CRITERION OF THE DISPERSION TERM
 =  16.70    (WHEN MIN. R.F.=1)  AT K=   1, I=   1, J=   1


     1 CALLS TO GCG PACKAGE FOR TRANSPORT TIME STEP   1 IN FLOW TIME STEP  13 STRESS PERIOD   1
     5 TOTAL ITERATIONS
  MAXIMUM CONCENTRATION CHANGES FOR EACH ITERATION:
  MAX. CHANGE LAYER,ROW,COL MAX. CHANGE LAYER,ROW,COL MAX. CHANGE LAYER,ROW,COL MAX. CHANGE LAYER,ROW,COL MAX. CHANGE LAYER,ROW,COL
 ------------------------------------------------------------------------------------------------------------------------------------
   0.1223E-01 (  1,  3,  1)  0.1124E-02 (  3,  2,  1)  0.2981E-03 (  3,  4,  2)  0.1337E-03 (  1,  2,  1)  0.2868E-04 (  1,  4,  5)

 NO OUTPUT CONTROL FOR STRESS PERIOD    1   TIME STEP  13


                                          ================================================
                                                         FROM TIME =   13.000     TO    14.000    

 
 SOLVING FOR HEAD 
 FLOW MODEL IS STEADY-STATE
 FLOW MODEL CONTAINS CONSTANT-HEAD CELLS


 MAXIMUM STEPSIZE DURING WHICH ANY PARTICLE CANNOT MOVE MORE THAN ONE CELL
 =  1.454    (WHEN MIN. R.F.=1)  AT K=   5, I=   1, J=   5

 MAXIMUM STEPSIZE WHICH MEETS STABILITY CRITERION OF THE ADVECTION TERM
 (FOR PURE FINITE-DIFFERENCE OPTION, MIXELM=0) 
 =  1.428    (WHEN MIN. R.F.=1)  AT K=   5, I=   1, J=   5


 TOTAL NUMBER OF POINT SOURCES/SINKS PRESENT IN THE FLOW MODEL =   150

 MAXIMUM STEPSIZE WHICH MEETS STABILITY CRITERION OF THE SINK & SOURCE TERM
 =  69.01    (WHEN MIN. R.F.=1)  AT K=   1, I=   1, J=   1

 MAXIMUM STEPSIZE WHICH MEETS STABILITY CRITERION OF THE DISPERSION TERM
 =  16.70    (WHEN MIN. R.F.=1)  AT K=   1, I=   1, J=   1


     1 CALLS TO GCG PACKAGE FOR TRANSPORT TIME STEP   1 IN FLOW TIME STEP  14 STRESS PERIOD   1
     5 TOTAL ITERATIONS
  MAXIMUM CONCENTRATION CHANGES FOR EACH ITERATION:
  MAX. CHANGE LAYER,ROW,COL MAX. CHANGE LAYER,ROW,COL MAX. CHANGE LAYER,ROW,COL MAX. CHANGE LAYER,ROW,COL MAX. CHANGE LAYER,ROW,COL
 ------------------------------------------------------------------------------------------------------------------------------------
   0.1183E-01 (  1,  3,  1)  0.7518E-03 (  4,  2,  5)  0.2706E-03 (  4,  2,  5)  0.1949E-03 (  4,  2,  5)  0.6795E-04 (  4,  2,  1)

 NO OUTPUT CONTROL FOR STRESS PERIOD    1   TIME STEP  14


                                          ================================================
                                                         FROM TIME =   14.000     TO    15.000    

 
 SOLVING FOR HEAD 
 FLOW MODEL IS STEADY-STATE
 FLOW MODEL CONTAINS CONSTANT-HEAD CELLS


 MAXIMUM STEPSIZE DURING WHICH ANY PARTICLE CANNOT MOVE MORE THAN ONE CELL
 =  1.470    (WHEN MIN. R.F.=1)  AT K=   5, I=   1, J=   5

 MAXIMUM STEPSIZE WHICH MEETS STABILITY CRITERION OF THE ADVECTION TERM
 (FOR PURE FINITE-DIFFERENCE OPTION, MIXELM=0) 
 =  1.440    (WHEN MIN. R.F.=1)  AT K=   5, I=   1, J=   5


 TOTAL NUMBER OF POINT SOURCES/SINKS PRESENT IN THE FLOW MODEL =   150

 MAXIMUM STEPSIZE WHICH MEETS STABILITY CRITERION OF THE SINK & SOURCE TERM
 =  69.01    (WHEN MIN. R.F.=1)  AT K=   1, I=   1, J=   1

 MAXIMUM STEPSIZE WHICH MEETS STABILITY CRITERION OF THE DISPERSION TERM
 =  16.70    (WHEN MIN. R.F.=1)  AT K=   1, I=   1, J=   1


     1 CALLS TO GCG PACKAGE FOR TRANSPORT TIME STEP   1 IN FLOW TIME STEP  15 STRESS PERIOD   1
     6 TOTAL ITERATIONS
  MAXIMUM CONCENTRATION CHANGES FOR EACH ITERATION:
  MAX. CHANGE LAYER,ROW,COL MAX. CHANGE LAYER,ROW,COL MAX. CHANGE LAYER,ROW,COL MAX. CHANGE LAYER,ROW,COL MAX. CHANGE LAYER,ROW,COL
 ------------------------------------------------------------------------------------------------------------------------------------
   0.1120E-01 (  1,  3,  1)  0.3246E-02 (  4,  2,  1)  0.2273E-02 (  4,  2,  1)  0.7268E-03 (  4,  2,  1)  0.5808E-03 (  4,  2,  1)
   0.1224E-04 (  1,  5,  5)

 NO OUTPUT CONTROL FOR STRESS PERIOD    1   TIME STEP  15


                                          ================================================
                                                         FROM TIME =   15.000     TO    16.000    

 
 SOLVING FOR HEAD 
 FLOW MODEL IS STEADY-STATE
 FLOW MODEL CONTAINS CONSTANT-HEAD CELLS


 MAXIMUM STEPSIZE DURING WHICH ANY PARTICLE CANNOT MOVE MORE THAN ONE CELL
 =  1.483    (WHEN MIN. R.F.=1)  AT K=   6, I=   1, J=   5

 MAXIMUM STEPSIZE WHICH MEETS STABILITY CRITERION OF THE ADVECTION TERM
 (FOR PURE FINITE-DIFFERENCE OPTION, MIXELM=0) 
 =  1.455    (WHEN MIN. R.F.=1)  AT K=   6, I=   1, J=   5


 TOTAL NUMBER OF POINT SOURCES/SINKS PRESENT IN THE FLOW MODEL =   150

 MAXIMUM STEPSIZE WHICH MEETS STABILITY CRITERION OF THE SINK & SOURCE TERM
 =  69.01    (WHEN MIN. R.F.=1)  AT K=   1, I=   1, J=   1

 MAXIMUM STEPSIZE WHICH MEETS STABILITY CRITERION OF THE DISPERSION TERM
 =  16.70    (WHEN MIN. R.F.=1)  AT K=   1, I=   1, J=   1


     1 CALLS TO GCG PACKAGE FOR TRANSPORT TIME STEP   1 IN FLOW TIME STEP  16 STRESS PERIOD   1
     4 TOTAL ITERATIONS
  MAXIMUM CONCENTRATION CHANGES FOR EACH ITERATION:
  MAX. CHANGE LAYER,ROW,COL MAX. CHANGE LAYER,ROW,COL MAX. CHANGE LAYER,ROW,COL MAX. CHANGE LAYER,ROW,COL MAX. CHANGE LAYER,ROW,COL
 ------------------------------------------------------------------------------------------------------------------------------------
   0.1127E-01 (  1,  4,  1)  0.1168E-02 (  4,  2,  1)  0.3804E-03 (  4,  2,  1)  0.4008E-05 (  4,  2,  1)

 NO OUTPUT CONTROL FOR STRESS PERIOD    1   TIME STEP  16


                                          ================================================
                                                         FROM TIME =   16.000     TO    17.000    

 
 SOLVING FOR HEAD 
 FLOW MODEL IS STEADY-STATE
 FLOW MODEL CONTAINS CONSTANT-HEAD CELLS


 MAXIMUM STEPSIZE DURING WHICH ANY PARTICLE CANNOT MOVE MORE THAN ONE CELL
 =  1.495    (WHEN MIN. R.F.=1)  AT K=   6, I=   1, J=   5

 MAXIMUM STEPSIZE WHICH MEETS STABILITY CRITERION OF THE ADVECTION TERM
 (FOR PURE FINITE-DIFFERENCE OPTION, MIXELM=0) 
 =  1.471    (WHEN MIN. R.F.=1)  AT K=   6, I=   1, J=   5


 TOTAL NUMBER OF POINT SOURCES/SINKS PRESENT IN THE FLOW MODEL =   150

 MAXIMUM STEPSIZE WHICH MEETS STABILITY CRITERION OF THE SINK & SOURCE TERM
 =  69.01    (WHEN MIN. R.F.=1)  AT K=   1, I=   1, J=   1

 MAXIMUM STEPSIZE WHICH MEETS STABILITY CRITERION OF THE DISPERSION TERM
 =  16.70    (WHEN MIN. R.F.=1)  AT K=   1, I=   1, J=   1


     1 CALLS TO GCG PACKAGE FOR TRANSPORT TIME STEP   1 IN FLOW TIME STEP  17 STRESS PERIOD   1
     4 TOTAL ITERATIONS
  MAXIMUM CONCENTRATION CHANGES FOR EACH ITERATION:
  MAX. CHANGE LAYER,ROW,COL MAX. CHANGE LAYER,ROW,COL MAX. CHANGE LAYER,ROW,COL MAX. CHANGE LAYER,ROW,COL MAX. CHANGE LAYER,ROW,COL
 ------------------------------------------------------------------------------------------------------------------------------------
   0.1107E-01 (  1,  4,  1)  0.7830E-03 (  4,  2,  1)  0.2460E-03 (  1,  2,  5)  0.3082E-04 (  1,  2,  5)

 NO OUTPUT CONTROL FOR STRESS PERIOD    1   TIME STEP  17


                                          ================================================
                                                         FROM TIME =   17.000     TO    18.000    

 
 SOLVING FOR HEAD 
 FLOW MODEL IS STEADY-STATE
 FLOW MODEL CONTAINS CONSTANT-HEAD CELLS


 MAXIMUM STEPSIZE DURING WHICH ANY PARTICLE CANNOT MOVE MORE THAN ONE CELL
 =  1.509    (WHEN MIN. R.F.=1)  AT K=   6, I=   1, J=   5

 MAXIMUM STEPSIZE WHICH MEETS STABILITY CRITERION OF THE ADVECTION TERM
 (FOR PURE FINITE-DIFFERENCE OPTION, MIXELM=0) 
 =  1.488    (WHEN MIN. R.F.=1)  AT K=   6, I=   1, J=   5


 TOTAL NUMBER OF POINT SOURCES/SINKS PRESENT IN THE FLOW MODEL =   150

 MAXIMUM STEPSIZE WHICH MEETS STABILITY CRITERION OF THE SINK & SOURCE TERM
 =  69.01    (WHEN MIN. R.F.=1)  AT K=   1, I=   1, J=   1

 MAXIMUM STEPSIZE WHICH MEETS STABILITY CRITERION OF THE DISPERSION TERM
 =  16.70    (WHEN MIN. R.F.=1)  AT K=   1, I=   1, J=   1


     1 CALLS TO GCG PACKAGE FOR TRANSPORT TIME STEP   1 IN FLOW TIME STEP  18 STRESS PERIOD   1
     6 TOTAL ITERATIONS
  MAXIMUM CONCENTRATION CHANGES FOR EACH ITERATION:
  MAX. CHANGE LAYER,ROW,COL MAX. CHANGE LAYER,ROW,COL MAX. CHANGE LAYER,ROW,COL MAX. CHANGE LAYER,ROW,COL MAX. CHANGE LAYER,ROW,COL
 ------------------------------------------------------------------------------------------------------------------------------------
   0.1062E-01 (  1,  4,  1)  0.6987E-03 (  5,  2,  5)  0.2009E-03 (  1,  2,  5)  0.3297E-03 (  5,  2,  5)  0.2282E-03 (  5,  2,  5)
   0.1867E-06 (  5,  2,  5)

 NO OUTPUT CONTROL FOR STRESS PERIOD    1   TIME STEP  18


                                          ================================================
                                                         FROM TIME =   18.000     TO    19.000    

 
 SOLVING FOR HEAD 
 FLOW MODEL IS STEADY-STATE
 FLOW MODEL CONTAINS CONSTANT-HEAD CELLS


 MAXIMUM STEPSIZE DURING WHICH ANY PARTICLE CANNOT MOVE MORE THAN ONE CELL
 =  1.521    (WHEN MIN. R.F.=1)  AT K=   6, I=   1, J=   5

 MAXIMUM STEPSIZE WHICH MEETS STABILITY CRITERION OF THE ADVECTION TERM
 (FOR PURE FINITE-DIFFERENCE OPTION, MIXELM=0) 
 =  1.504    (WHEN MIN. R.F.=1)  AT K=   6, I=   1, J=   5


 TOTAL NUMBER OF POINT SOURCES/SINKS PRESENT IN THE FLOW MODEL =   150

 MAXIMUM STEPSIZE WHICH MEETS STABILITY CRITERION OF THE SINK & SOURCE TERM
 =  69.01    (WHEN MIN. R.F.=1)  AT K=   1, I=   1, J=   1

 MAXIMUM STEPSIZE WHICH MEETS STABILITY CRITERION OF THE DISPERSION TERM
 =  16.70    (WHEN MIN. R.F.=1)  AT K=   1, I=   1, J=   1


     1 CALLS TO GCG PACKAGE FOR TRANSPORT TIME STEP   1 IN FLOW TIME STEP  19 STRESS PERIOD   1
     5 TOTAL ITERATIONS
  MAXIMUM CONCENTRATION CHANGES FOR EACH ITERATION:
  MAX. CHANGE LAYER,ROW,COL MAX. CHANGE LAYER,ROW,COL MAX. CHANGE LAYER,ROW,COL MAX. CHANGE LAYER,ROW,COL MAX. CHANGE LAYER,ROW,COL
 ------------------------------------------------------------------------------------------------------------------------------------
   0.1025E-01 (  1,  5,  5)  0.6813E-03 (  5,  2,  5)  0.1690E-03 (  1,  2,  5)  0.1660E-03 (  5,  2,  5)  0.3830E-04 (  5,  2,  5)

 NO OUTPUT CONTROL FOR STRESS PERIOD    1   TIME STEP  19


                                          ================================================
                                                         FROM TIME =   19.000     TO    20.000    

 
 SOLVING FOR HEAD 
 FLOW MODEL IS STEADY-STATE
 FLOW MODEL CONTAINS CONSTANT-HEAD CELLS


 MAXIMUM STEPSIZE DURING WHICH ANY PARTICLE CANNOT MOVE MORE THAN ONE CELL
 =  1.534    (WHEN MIN. R.F.=1)  AT K=   6, I=   1, J=   5

 MAXIMUM STEPSIZE WHICH MEETS STABILITY CRITERION OF THE ADVECTION TERM
 (FOR PURE FINITE-DIFFERENCE OPTION, MIXELM=0) 
 =  1.521    (WHEN MIN. R.F.=1)  AT K=   6, I=   1, J=   5


 TOTAL NUMBER OF POINT SOURCES/SINKS PRESENT IN THE FLOW MODEL =   150

 MAXIMUM STEPSIZE WHICH MEETS STABILITY CRITERION OF THE SINK & SOURCE TERM
 =  69.01    (WHEN MIN. R.F.=1)  AT K=   1, I=   1, J=   1

 MAXIMUM STEPSIZE WHICH MEETS STABILITY CRITERION OF THE DISPERSION TERM
 =  16.70    (WHEN MIN. R.F.=1)  AT K=   1, I=   1, J=   1


     1 CALLS TO GCG PACKAGE FOR TRANSPORT TIME STEP   1 IN FLOW TIME STEP  20 STRESS PERIOD   1
     5 TOTAL ITERATIONS
  MAXIMUM CONCENTRATION CHANGES FOR EACH ITERATION:
  MAX. CHANGE LAYER,ROW,COL MAX. CHANGE LAYER,ROW,COL MAX. CHANGE LAYER,ROW,COL MAX. CHANGE LAYER,ROW,COL MAX. CHANGE LAYER,ROW,COL
 ------------------------------------------------------------------------------------------------------------------------------------
   0.1027E-01 (  1,  5,  1)  0.6282E-03 (  5,  2,  5)  0.1499E-03 (  1,  2,  5)  0.1433E-03 (  5,  2,  5)  0.1253E-04 (  1,  3,  5)

 NO OUTPUT CONTROL FOR STRESS PERIOD    1   TIME STEP  20


                                          ================================================
                                                         FROM TIME =   20.000     TO    21.000    

 
 SOLVING FOR HEAD 
 FLOW MODEL IS STEADY-STATE
 FLOW MODEL CONTAINS CONSTANT-HEAD CELLS


 MAXIMUM STEPSIZE DURING WHICH ANY PARTICLE CANNOT MOVE MORE THAN ONE CELL
 =  1.548    (WHEN MIN. R.F.=1)  AT K=   6, I=   1, J=   5

 MAXIMUM STEPSIZE WHICH MEETS STABILITY CRITERION OF THE ADVECTION TERM
 (FOR PURE FINITE-DIFFERENCE OPTION, MIXELM=0) 
 =  1.538    (WHEN MIN. R.F.=1)  AT K=   6, I=   1, J=   5


 TOTAL NUMBER OF POINT SOURCES/SINKS PRESENT IN THE FLOW MODEL =   150

 MAXIMUM STEPSIZE WHICH MEETS STABILITY CRITERION OF THE SINK & SOURCE TERM
 =  69.01    (WHEN MIN. R.F.=1)  AT K=   1, I=   1, J=   1

 MAXIMUM STEPSIZE WHICH MEETS STABILITY CRITERION OF THE DISPERSION TERM
 =  16.70    (WHEN MIN. R.F.=1)  AT K=   1, I=   1, J=   1


     1 CALLS TO GCG PACKAGE FOR TRANSPORT TIME STEP   1 IN FLOW TIME STEP  21 STRESS PERIOD   1
     5 TOTAL ITERATIONS
  MAXIMUM CONCENTRATION CHANGES FOR EACH ITERATION:
  MAX. CHANGE LAYER,ROW,COL MAX. CHANGE LAYER,ROW,COL MAX. CHANGE LAYER,ROW,COL MAX. CHANGE LAYER,ROW,COL MAX. CHANGE LAYER,ROW,COL
 ------------------------------------------------------------------------------------------------------------------------------------
   0.1005E-01 (  1,  5,  1)  0.4960E-03 (  5,  2,  5)  0.1305E-03 (  1,  2,  5)  0.1550E-03 (  5,  2,  5)  0.9656E-05 (  1,  4,  5)

 NO OUTPUT CONTROL FOR STRESS PERIOD    1   TIME STEP  21


                                          ================================================
                                                         FROM TIME =   21.000     TO    22.000    

 
 SOLVING FOR HEAD 
 FLOW MODEL IS STEADY-STATE
 FLOW MODEL CONTAINS CONSTANT-HEAD CELLS


 MAXIMUM STEPSIZE DURING WHICH ANY PARTICLE CANNOT MOVE MORE THAN ONE CELL
 =  1.562    (WHEN MIN. R.F.=1)  AT K=   6, I=   1, J=   5

 MAXIMUM STEPSIZE WHICH MEETS STABILITY CRITERION OF THE ADVECTION TERM
 (FOR PURE FINITE-DIFFERENCE OPTION, MIXELM=0) 
 =  1.556    (WHEN MIN. R.F.=1)  AT K=   6, I=   1, J=   5


 TOTAL NUMBER OF POINT SOURCES/SINKS PRESENT IN THE FLOW MODEL =   150

 MAXIMUM STEPSIZE WHICH MEETS STABILITY CRITERION OF THE SINK & SOURCE TERM
 =  69.01    (WHEN MIN. R.F.=1)  AT K=   1, I=   1, J=   1

 MAXIMUM STEPSIZE WHICH MEETS STABILITY CRITERION OF THE DISPERSION TERM
 =  16.70    (WHEN MIN. R.F.=1)  AT K=   1, I=   1, J=   1


     1 CALLS TO GCG PACKAGE FOR TRANSPORT TIME STEP   1 IN FLOW TIME STEP  22 STRESS PERIOD   1
     5 TOTAL ITERATIONS
  MAXIMUM CONCENTRATION CHANGES FOR EACH ITERATION:
  MAX. CHANGE LAYER,ROW,COL MAX. CHANGE LAYER,ROW,COL MAX. CHANGE LAYER,ROW,COL MAX. CHANGE LAYER,ROW,COL MAX. CHANGE LAYER,ROW,COL
 ------------------------------------------------------------------------------------------------------------------------------------
   0.9659E-02 (  1,  5,  1)  0.1004E-03 (  5,  2,  5)  0.3175E-03 (  5,  2,  5)  0.2320E-03 (  5,  2,  5)  0.1189E-04 (  5,  2,  5)

 NO OUTPUT CONTROL FOR STRESS PERIOD    1   TIME STEP  22


                                          ================================================
                                                         FROM TIME =   22.000     TO    23.000    

 
 SOLVING FOR HEAD 
 FLOW MODEL IS STEADY-STATE
 FLOW MODEL CONTAINS CONSTANT-HEAD CELLS


 MAXIMUM STEPSIZE DURING WHICH ANY PARTICLE CANNOT MOVE MORE THAN ONE CELL
 =  1.577    (WHEN MIN. R.F.=1)  AT K=   6, I=   1, J=   5

 MAXIMUM STEPSIZE WHICH MEETS STABILITY CRITERION OF THE ADVECTION TERM
 (FOR PURE FINITE-DIFFERENCE OPTION, MIXELM=0) 
 =  1.575    (WHEN MIN. R.F.=1)  AT K=   6, I=   1, J=   5


 TOTAL NUMBER OF POINT SOURCES/SINKS PRESENT IN THE FLOW MODEL =   150

 MAXIMUM STEPSIZE WHICH MEETS STABILITY CRITERION OF THE SINK & SOURCE TERM
 =  69.01    (WHEN MIN. R.F.=1)  AT K=   1, I=   1, J=   1

 MAXIMUM STEPSIZE WHICH MEETS STABILITY CRITERION OF THE DISPERSION TERM
 =  16.70    (WHEN MIN. R.F.=1)  AT K=   1, I=   1, J=   1


     1 CALLS TO GCG PACKAGE FOR TRANSPORT TIME STEP   1 IN FLOW TIME STEP  23 STRESS PERIOD   1
     5 TOTAL ITERATIONS
  MAXIMUM CONCENTRATION CHANGES FOR EACH ITERATION:
  MAX. CHANGE LAYER,ROW,COL MAX. CHANGE LAYER,ROW,COL MAX. CHANGE LAYER,ROW,COL MAX. CHANGE LAYER,ROW,COL MAX. CHANGE LAYER,ROW,COL
 ------------------------------------------------------------------------------------------------------------------------------------
   0.9301E-02 (  1,  6,  5)  0.6079E-02 (  5,  2,  5)  0.6117E-02 (  5,  2,  5)  0.6740E-03 (  5,  2,  5)  0.3584E-04 (  1,  3,  5)

 NO OUTPUT CONTROL FOR STRESS PERIOD    1   TIME STEP  23


                                          ================================================
                                                         FROM TIME =   23.000     TO    24.000    

 
 SOLVING FOR HEAD 
 FLOW MODEL IS STEADY-STATE
 FLOW MODEL CONTAINS CONSTANT-HEAD CELLS


 MAXIMUM STEPSIZE DURING WHICH ANY PARTICLE CANNOT MOVE MORE THAN ONE CELL
 =  1.591    (WHEN MIN. R.F.=1)  AT K=   6, I=   1, J=   5

 MAXIMUM STEPSIZE WHICH MEETS STABILITY CRITERION OF THE ADVECTION TERM
 (FOR PURE FINITE-DIFFERENCE OPTION, MIXELM=0) 
 =  1.589    (WHEN MIN. R.F.=1)  AT K=   6, I=   1, J=   5


 TOTAL NUMBER OF POINT SOURCES/SINKS PRESENT IN THE FLOW MODEL =   150

 MAXIMUM STEPSIZE WHICH MEETS STABILITY CRITERION OF THE SINK & SOURCE TERM
 =  69.01    (WHEN MIN. R.F.=1)  AT K=   1, I=   1, J=   1

 MAXIMUM STEPSIZE WHICH MEETS STABILITY CRITERION OF THE DISPERSION TERM
 =  16.70    (WHEN MIN. R.F.=1)  AT K=   1, I=   1, J=   1


     1 CALLS TO GCG PACKAGE FOR TRANSPORT TIME STEP   1 IN FLOW TIME STEP  24 STRESS PERIOD   1
     5 TOTAL ITERATIONS
  MAXIMUM CONCENTRATION CHANGES FOR EACH ITERATION:
  MAX. CHANGE LAYER,ROW,COL MAX. CHANGE LAYER,ROW,COL MAX. CHANGE LAYER,ROW,COL MAX. CHANGE LAYER,ROW,COL MAX. CHANGE LAYER,ROW,COL
 ------------------------------------------------------------------------------------------------------------------------------------
   0.9369E-02 (  1,  6,  1)  0.2034E-02 (  5,  2,  1)  0.1947E-02 (  5,  2,  1)  0.5106E-03 (  5,  2,  1)  0.2289E-05 (  1,  3,  5)

 NO OUTPUT CONTROL FOR STRESS PERIOD    1   TIME STEP  24


                                          ================================================
                                                         FROM TIME =   24.000     TO    25.000    

 
 SOLVING FOR HEAD 
 FLOW MODEL IS STEADY-STATE
 FLOW MODEL CONTAINS CONSTANT-HEAD CELLS


 MAXIMUM STEPSIZE DURING WHICH ANY PARTICLE CANNOT MOVE MORE THAN ONE CELL
 =  1.606    (WHEN MIN. R.F.=1)  AT K=   6, I=   1, J=   5

 MAXIMUM STEPSIZE WHICH MEETS STABILITY CRITERION OF THE ADVECTION TERM
 (FOR PURE FINITE-DIFFERENCE OPTION, MIXELM=0) 
 =  1.600    (WHEN MIN. R.F.=1)  AT K=   6, I=   1, J=   5


 TOTAL NUMBER OF POINT SOURCES/SINKS PRESENT IN THE FLOW MODEL =   150

 MAXIMUM STEPSIZE WHICH MEETS STABILITY CRITERION OF THE SINK & SOURCE TERM
 =  69.01    (WHEN MIN. R.F.=1)  AT K=   1, I=   1, J=   1

 MAXIMUM STEPSIZE WHICH MEETS STABILITY CRITERION OF THE DISPERSION TERM
 =  16.70    (WHEN MIN. R.F.=1)  AT K=   1, I=   1, J=   1


     1 CALLS TO GCG PACKAGE FOR TRANSPORT TIME STEP   1 IN FLOW TIME STEP  25 STRESS PERIOD   1
     4 TOTAL ITERATIONS
  MAXIMUM CONCENTRATION CHANGES FOR EACH ITERATION:
  MAX. CHANGE LAYER,ROW,COL MAX. CHANGE LAYER,ROW,COL MAX. CHANGE LAYER,ROW,COL MAX. CHANGE LAYER,ROW,COL MAX. CHANGE LAYER,ROW,COL
 ------------------------------------------------------------------------------------------------------------------------------------
   0.9247E-02 (  1,  6,  1)  0.2295E-02 (  5,  2,  1)  0.2702E-02 (  5,  2,  1)  0.8680E-04 (  5,  2,  1)

 NO OUTPUT CONTROL FOR STRESS PERIOD    1   TIME STEP  25


                                          ================================================
                                                         FROM TIME =   25.000     TO    26.000    

 
 SOLVING FOR HEAD 
 FLOW MODEL IS STEADY-STATE
 FLOW MODEL CONTAINS CONSTANT-HEAD CELLS


 MAXIMUM STEPSIZE DURING WHICH ANY PARTICLE CANNOT MOVE MORE THAN ONE CELL
 =  1.620    (WHEN MIN. R.F.=1)  AT K=   6, I=   1, J=   1

 MAXIMUM STEPSIZE WHICH MEETS STABILITY CRITERION OF THE ADVECTION TERM
 (FOR PURE FINITE-DIFFERENCE OPTION, MIXELM=0) 
 =  1.611    (WHEN MIN. R.F.=1)  AT K=   6, I=   1, J=   5


 TOTAL NUMBER OF POINT SOURCES/SINKS PRESENT IN THE FLOW MODEL =   150

 MAXIMUM STEPSIZE WHICH MEETS STABILITY CRITERION OF THE SINK & SOURCE TERM
 =  69.01    (WHEN MIN. R.F.=1)  AT K=   1, I=   1, J=   1

 MAXIMUM STEPSIZE WHICH MEETS STABILITY CRITERION OF THE DISPERSION TERM
 =  16.70    (WHEN MIN. R.F.=1)  AT K=   1, I=   1, J=   1


     1 CALLS TO GCG PACKAGE FOR TRANSPORT TIME STEP   1 IN FLOW TIME STEP  26 STRESS PERIOD   1
     4 TOTAL ITERATIONS
  MAXIMUM CONCENTRATION CHANGES FOR EACH ITERATION:
  MAX. CHANGE LAYER,ROW,COL MAX. CHANGE LAYER,ROW,COL MAX. CHANGE LAYER,ROW,COL MAX. CHANGE LAYER,ROW,COL MAX. CHANGE LAYER,ROW,COL
 ------------------------------------------------------------------------------------------------------------------------------------
   0.8978E-02 (  1,  6,  1)  0.6144E-03 (  5,  2,  1)  0.9672E-03 (  5,  2,  1)  0.4846E-04 (  1,  2,  5)

 NO OUTPUT CONTROL FOR STRESS PERIOD    1   TIME STEP  26


                                          ================================================
                                                         FROM TIME =   26.000     TO    27.000    

 
 SOLVING FOR HEAD 
 FLOW MODEL IS STEADY-STATE
 FLOW MODEL CONTAINS CONSTANT-HEAD CELLS


 MAXIMUM STEPSIZE DURING WHICH ANY PARTICLE CANNOT MOVE MORE THAN ONE CELL
 =  1.634    (WHEN MIN. R.F.=1)  AT K=   6, I=   1, J=   1

 MAXIMUM STEPSIZE WHICH MEETS STABILITY CRITERION OF THE ADVECTION TERM
 (FOR PURE FINITE-DIFFERENCE OPTION, MIXELM=0) 
 =  1.622    (WHEN MIN. R.F.=1)  AT K=   7, I=   1, J=   5


 TOTAL NUMBER OF POINT SOURCES/SINKS PRESENT IN THE FLOW MODEL =   150

 MAXIMUM STEPSIZE WHICH MEETS STABILITY CRITERION OF THE SINK & SOURCE TERM
 =  69.01    (WHEN MIN. R.F.=1)  AT K=   1, I=   1, J=   1

 MAXIMUM STEPSIZE WHICH MEETS STABILITY CRITERION OF THE DISPERSION TERM
 =  16.70    (WHEN MIN. R.F.=1)  AT K=   1, I=   1, J=   1


     1 CALLS TO GCG PACKAGE FOR TRANSPORT TIME STEP   1 IN FLOW TIME STEP  27 STRESS PERIOD   1
     4 TOTAL ITERATIONS
  MAXIMUM CONCENTRATION CHANGES FOR EACH ITERATION:
  MAX. CHANGE LAYER,ROW,COL MAX. CHANGE LAYER,ROW,COL MAX. CHANGE LAYER,ROW,COL MAX. CHANGE LAYER,ROW,COL MAX. CHANGE LAYER,ROW,COL
 ------------------------------------------------------------------------------------------------------------------------------------
   0.8609E-02 (  1,  6,  1)  0.6229E-03 (  2,  7,  2)  0.9486E-03 (  2,  7,  2)  0.3383E-04 (  1,  2,  5)

 NO OUTPUT CONTROL FOR STRESS PERIOD    1   TIME STEP  27


                                          ================================================
                                                         FROM TIME =   27.000     TO    28.000    

 
 SOLVING FOR HEAD 
 FLOW MODEL IS STEADY-STATE
 FLOW MODEL CONTAINS CONSTANT-HEAD CELLS


 MAXIMUM STEPSIZE DURING WHICH ANY PARTICLE CANNOT MOVE MORE THAN ONE CELL
 =  1.648    (WHEN MIN. R.F.=1)  AT K=   6, I=   1, J=   1

 MAXIMUM STEPSIZE WHICH MEETS STABILITY CRITERION OF THE ADVECTION TERM
 (FOR PURE FINITE-DIFFERENCE OPTION, MIXELM=0) 
 =  1.633    (WHEN MIN. R.F.=1)  AT K=   7, I=   1, J=   5


 TOTAL NUMBER OF POINT SOURCES/SINKS PRESENT IN THE FLOW MODEL =   150

 MAXIMUM STEPSIZE WHICH MEETS STABILITY CRITERION OF THE SINK & SOURCE TERM
 =  69.01    (WHEN MIN. R.F.=1)  AT K=   1, I=   1, J=   1

 MAXIMUM STEPSIZE WHICH MEETS STABILITY CRITERION OF THE DISPERSION TERM
 =  16.70    (WHEN MIN. R.F.=1)  AT K=   1, I=   1, J=   1


     1 CALLS TO GCG PACKAGE FOR TRANSPORT TIME STEP   1 IN FLOW TIME STEP  28 STRESS PERIOD   1
     4 TOTAL ITERATIONS
  MAXIMUM CONCENTRATION CHANGES FOR EACH ITERATION:
  MAX. CHANGE LAYER,ROW,COL MAX. CHANGE LAYER,ROW,COL MAX. CHANGE LAYER,ROW,COL MAX. CHANGE LAYER,ROW,COL MAX. CHANGE LAYER,ROW,COL
 ------------------------------------------------------------------------------------------------------------------------------------
   0.8559E-02 (  1,  7,  5)  0.1665E-02 (  2,  8,  4)  0.2029E-02 (  2,  8,  4)  0.2986E-04 (  1,  2,  5)

 NO OUTPUT CONTROL FOR STRESS PERIOD    1   TIME STEP  28


                                          ================================================
                                                         FROM TIME =   28.000     TO    29.000    

 
 SOLVING FOR HEAD 
 FLOW MODEL IS STEADY-STATE
 FLOW MODEL CONTAINS CONSTANT-HEAD CELLS


 MAXIMUM STEPSIZE DURING WHICH ANY PARTICLE CANNOT MOVE MORE THAN ONE CELL
 =  1.662    (WHEN MIN. R.F.=1)  AT K=   6, I=   1, J=   5

 MAXIMUM STEPSIZE WHICH MEETS STABILITY CRITERION OF THE ADVECTION TERM
 (FOR PURE FINITE-DIFFERENCE OPTION, MIXELM=0) 
 =  1.644    (WHEN MIN. R.F.=1)  AT K=   7, I=   1, J=   5


 TOTAL NUMBER OF POINT SOURCES/SINKS PRESENT IN THE FLOW MODEL =   150

 MAXIMUM STEPSIZE WHICH MEETS STABILITY CRITERION OF THE SINK & SOURCE TERM
 =  69.01    (WHEN MIN. R.F.=1)  AT K=   1, I=   1, J=   1

 MAXIMUM STEPSIZE WHICH MEETS STABILITY CRITERION OF THE DISPERSION TERM
 =  16.70    (WHEN MIN. R.F.=1)  AT K=   1, I=   1, J=   1


     1 CALLS TO GCG PACKAGE FOR TRANSPORT TIME STEP   1 IN FLOW TIME STEP  29 STRESS PERIOD   1
     4 TOTAL ITERATIONS
  MAXIMUM CONCENTRATION CHANGES FOR EACH ITERATION:
  MAX. CHANGE LAYER,ROW,COL MAX. CHANGE LAYER,ROW,COL MAX. CHANGE LAYER,ROW,COL MAX. CHANGE LAYER,ROW,COL MAX. CHANGE LAYER,ROW,COL
 ------------------------------------------------------------------------------------------------------------------------------------
   0.8554E-02 (  1,  7,  1)  0.4637E-02 (  2,  8,  4)  0.4279E-02 (  2,  8,  4)  0.3274E-04 (  6,  2,  5)

 NO OUTPUT CONTROL FOR STRESS PERIOD    1   TIME STEP  29


                                          ================================================
                                                         FROM TIME =   29.000     TO    30.000    

 
 SOLVING FOR HEAD 
 FLOW MODEL IS STEADY-STATE
 FLOW MODEL CONTAINS CONSTANT-HEAD CELLS


 MAXIMUM STEPSIZE DURING WHICH ANY PARTICLE CANNOT MOVE MORE THAN ONE CELL
 =  1.675    (WHEN MIN. R.F.=1)  AT K=   6, I=   1, J=   5

 MAXIMUM STEPSIZE WHICH MEETS STABILITY CRITERION OF THE ADVECTION TERM
 (FOR PURE FINITE-DIFFERENCE OPTION, MIXELM=0) 
 =  1.654    (WHEN MIN. R.F.=1)  AT K=   7, I=   1, J=   5


 TOTAL NUMBER OF POINT SOURCES/SINKS PRESENT IN THE FLOW MODEL =   150

 MAXIMUM STEPSIZE WHICH MEETS STABILITY CRITERION OF THE SINK & SOURCE TERM
 =  69.01    (WHEN MIN. R.F.=1)  AT K=   1, I=   1, J=   1

 MAXIMUM STEPSIZE WHICH MEETS STABILITY CRITERION OF THE DISPERSION TERM
 =  16.70    (WHEN MIN. R.F.=1)  AT K=   1, I=   1, J=   1


     1 CALLS TO GCG PACKAGE FOR TRANSPORT TIME STEP   1 IN FLOW TIME STEP  30 STRESS PERIOD   1
     4 TOTAL ITERATIONS
  MAXIMUM CONCENTRATION CHANGES FOR EACH ITERATION:
[...]

 MAXIMUM STEPSIZE WHICH MEETS STABILITY CRITERION OF THE SINK & SOURCE TERM
 =  69.01    (WHEN MIN. R.F.=1)  AT K=   1, I=   1, J=   1

 MAXIMUM STEPSIZE WHICH MEETS STABILITY CRITERION OF THE DISPERSION TERM
 =  16.70    (WHEN MIN. R.F.=1)  AT K=   1, I=   1, J=   1


     1 CALLS TO GCG PACKAGE FOR TRANSPORT TIME STEP   1 IN FLOW TIME STEP  40 STRESS PERIOD   1
     3 TOTAL ITERATIONS
  MAXIMUM CONCENTRATION CHANGES FOR EACH ITERATION:
  MAX. CHANGE LAYER,ROW,COL MAX. CHANGE LAYER,ROW,COL MAX. CHANGE LAYER,ROW,COL MAX. CHANGE LAYER,ROW,COL MAX. CHANGE LAYER,ROW,COL
 ------------------------------------------------------------------------------------------------------------------------------------
   0.7157E-02 (  1,  9,  1)  0.3753E-03 (  6,  2,  5)  0.5418E-04 (  6,  2,  5)

 NO OUTPUT CONTROL FOR STRESS PERIOD    1   TIME STEP  40


                                          ================================================
                                                         FROM TIME =   40.000     TO    41.000    

 
 SOLVING FOR HEAD 
 FLOW MODEL IS STEADY-STATE
 FLOW MODEL CONTAINS CONSTANT-HEAD CELLS


 MAXIMUM STEPSIZE DURING WHICH ANY PARTICLE CANNOT MOVE MORE THAN ONE CELL
 =  1.802    (WHEN MIN. R.F.=1)  AT K=   6, I=   1, J=   5

 MAXIMUM STEPSIZE WHICH MEETS STABILITY CRITERION OF THE ADVECTION TERM
 (FOR PURE FINITE-DIFFERENCE OPTION, MIXELM=0) 
 =  1.762    (WHEN MIN. R.F.=1)  AT K=   7, I=   1, J=   5


 TOTAL NUMBER OF POINT SOURCES/SINKS PRESENT IN THE FLOW MODEL =   150

 MAXIMUM STEPSIZE WHICH MEETS STABILITY CRITERION OF THE SINK & SOURCE TERM
 =  69.01    (WHEN MIN. R.F.=1)  AT K=   1, I=   1, J=   1

 MAXIMUM STEPSIZE WHICH MEETS STABILITY CRITERION OF THE DISPERSION TERM
 =  16.70    (WHEN MIN. R.F.=1)  AT K=   1, I=   1, J=   1


     1 CALLS TO GCG PACKAGE FOR TRANSPORT TIME STEP   1 IN FLOW TIME STEP  41 STRESS PERIOD   1
     3 TOTAL ITERATIONS
  MAXIMUM CONCENTRATION CHANGES FOR EACH ITERATION:
  MAX. CHANGE LAYER,ROW,COL MAX. CHANGE LAYER,ROW,COL MAX. CHANGE LAYER,ROW,COL MAX. CHANGE LAYER,ROW,COL MAX. CHANGE LAYER,ROW,COL
 ------------------------------------------------------------------------------------------------------------------------------------
   0.7020E-02 (  1,  9,  1)  0.3614E-03 (  6,  2,  5)  0.6292E-04 (  6,  2,  5)

 NO OUTPUT CONTROL FOR STRESS PERIOD    1   TIME STEP  41


                                          ================================================
                                                         FROM TIME =   41.000     TO    42.000    

 
 SOLVING FOR HEAD 
 FLOW MODEL IS STEADY-STATE
 FLOW MODEL CONTAINS CONSTANT-HEAD CELLS


 MAXIMUM STEPSIZE DURING WHICH ANY PARTICLE CANNOT MOVE MORE THAN ONE CELL
 =  1.812    (WHEN MIN. R.F.=1)  AT K=   6, I=   1, J=   5

 MAXIMUM STEPSIZE WHICH MEETS STABILITY CRITERION OF THE ADVECTION TERM
 (FOR PURE FINITE-DIFFERENCE OPTION, MIXELM=0) 
 =  1.771    (WHEN MIN. R.F.=1)  AT K=   7, I=   1, J=   5


 TOTAL NUMBER OF POINT SOURCES/SINKS PRESENT IN THE FLOW MODEL =   150

 MAXIMUM STEPSIZE WHICH MEETS STABILITY CRITERION OF THE SINK & SOURCE TERM
 =  69.01    (WHEN MIN. R.F.=1)  AT K=   1, I=   1, J=   1

 MAXIMUM STEPSIZE WHICH MEETS STABILITY CRITERION OF THE DISPERSION TERM
 =  16.70    (WHEN MIN. R.F.=1)  AT K=   1, I=   1, J=   1


     1 CALLS TO GCG PACKAGE FOR TRANSPORT TIME STEP   1 IN FLOW TIME STEP  42 STRESS PERIOD   1
     3 TOTAL ITERATIONS
  MAXIMUM CONCENTRATION CHANGES FOR EACH ITERATION:
  MAX. CHANGE LAYER,ROW,COL MAX. CHANGE LAYER,ROW,COL MAX. CHANGE LAYER,ROW,COL MAX. CHANGE LAYER,ROW,COL MAX. CHANGE LAYER,ROW,COL
 ------------------------------------------------------------------------------------------------------------------------------------
   0.6830E-02 (  1,  9,  1)  0.3482E-03 (  6,  2,  5)  0.6547E-04 (  6,  2,  5)

 NO OUTPUT CONTROL FOR STRESS PERIOD    1   TIME STEP  42


                                          ================================================
                                                         FROM TIME =   42.000     TO    43.000    

 
 SOLVING FOR HEAD 
 FLOW MODEL IS STEADY-STATE
 FLOW MODEL CONTAINS CONSTANT-HEAD CELLS


 MAXIMUM STEPSIZE DURING WHICH ANY PARTICLE CANNOT MOVE MORE THAN ONE CELL
 =  1.822    (WHEN MIN. R.F.=1)  AT K=   6, I=   1, J=   5

 MAXIMUM STEPSIZE WHICH MEETS STABILITY CRITERION OF THE ADVECTION TERM
 (FOR PURE FINITE-DIFFERENCE OPTION, MIXELM=0) 
 =  1.780    (WHEN MIN. R.F.=1)  AT K=   7, I=   1, J=   5


 TOTAL NUMBER OF POINT SOURCES/SINKS PRESENT IN THE FLOW MODEL =   150

 MAXIMUM STEPSIZE WHICH MEETS STABILITY CRITERION OF THE SINK & SOURCE TERM
 =  69.01    (WHEN MIN. R.F.=1)  AT K=   1, I=   1, J=   1

 MAXIMUM STEPSIZE WHICH MEETS STABILITY CRITERION OF THE DISPERSION TERM
 =  16.70    (WHEN MIN. R.F.=1)  AT K=   1, I=   1, J=   1


     1 CALLS TO GCG PACKAGE FOR TRANSPORT TIME STEP   1 IN FLOW TIME STEP  43 STRESS PERIOD   1
     3 TOTAL ITERATIONS
  MAXIMUM CONCENTRATION CHANGES FOR EACH ITERATION:
  MAX. CHANGE LAYER,ROW,COL MAX. CHANGE LAYER,ROW,COL MAX. CHANGE LAYER,ROW,COL MAX. CHANGE LAYER,ROW,COL MAX. CHANGE LAYER,ROW,COL
 ------------------------------------------------------------------------------------------------------------------------------------
   0.6601E-02 (  1,  9,  1)  0.3356E-03 (  6,  2,  5)  0.6627E-04 (  6,  2,  5)

 NO OUTPUT CONTROL FOR STRESS PERIOD    1   TIME STEP  43


                                          ================================================
                                                         FROM TIME =   43.000     TO    44.000    

 
 SOLVING FOR HEAD 
 FLOW MODEL IS STEADY-STATE
 FLOW MODEL CONTAINS CONSTANT-HEAD CELLS


 MAXIMUM STEPSIZE DURING WHICH ANY PARTICLE CANNOT MOVE MORE THAN ONE CELL
 =  1.833    (WHEN MIN. R.F.=1)  AT K=   6, I=   1, J=   5

 MAXIMUM STEPSIZE WHICH MEETS STABILITY CRITERION OF THE ADVECTION TERM
 (FOR PURE FINITE-DIFFERENCE OPTION, MIXELM=0) 
 =  1.789    (WHEN MIN. R.F.=1)  AT K=   7, I=   1, J=   5


 TOTAL NUMBER OF POINT SOURCES/SINKS PRESENT IN THE FLOW MODEL =   150

 MAXIMUM STEPSIZE WHICH MEETS STABILITY CRITERION OF THE SINK & SOURCE TERM
 =  69.01    (WHEN MIN. R.F.=1)  AT K=   1, I=   1, J=   1

 MAXIMUM STEPSIZE WHICH MEETS STABILITY CRITERION OF THE DISPERSION TERM
 =  16.70    (WHEN MIN. R.F.=1)  AT K=   1, I=   1, J=   1


     1 CALLS TO GCG PACKAGE FOR TRANSPORT TIME STEP   1 IN FLOW TIME STEP  44 STRESS PERIOD   1
     3 TOTAL ITERATIONS
  MAXIMUM CONCENTRATION CHANGES FOR EACH ITERATION:
  MAX. CHANGE LAYER,ROW,COL MAX. CHANGE LAYER,ROW,COL MAX. CHANGE LAYER,ROW,COL MAX. CHANGE LAYER,ROW,COL MAX. CHANGE LAYER,ROW,COL
 ------------------------------------------------------------------------------------------------------------------------------------
   0.6631E-02 (  1, 10,  1)  0.3236E-03 (  6,  2,  5)  0.6616E-04 (  6,  2,  5)

 NO OUTPUT CONTROL FOR STRESS PERIOD    1   TIME STEP  44


                                          ================================================
                                                         FROM TIME =   44.000     TO    45.000    

 
 SOLVING FOR HEAD 
 FLOW MODEL IS STEADY-STATE
 FLOW MODEL CONTAINS CONSTANT-HEAD CELLS


 MAXIMUM STEPSIZE DURING WHICH ANY PARTICLE CANNOT MOVE MORE THAN ONE CELL
 =  1.843    (WHEN MIN. R.F.=1)  AT K=   6, I=   1, J=   5

 MAXIMUM STEPSIZE WHICH MEETS STABILITY CRITERION OF THE ADVECTION TERM
 (FOR PURE FINITE-DIFFERENCE OPTION, MIXELM=0) 
 =  1.797    (WHEN MIN. R.F.=1)  AT K=   7, I=   1, J=   5


 TOTAL NUMBER OF POINT SOURCES/SINKS PRESENT IN THE FLOW MODEL =   150

 MAXIMUM STEPSIZE WHICH MEETS STABILITY CRITERION OF THE SINK & SOURCE TERM
 =  69.01    (WHEN MIN. R.F.=1)  AT K=   1, I=   1, J=   1

 MAXIMUM STEPSIZE WHICH MEETS STABILITY CRITERION OF THE DISPERSION TERM
 =  16.70    (WHEN MIN. R.F.=1)  AT K=   1, I=   1, J=   1


     1 CALLS TO GCG PACKAGE FOR TRANSPORT TIME STEP   1 IN FLOW TIME STEP  45 STRESS PERIOD   1
     3 TOTAL ITERATIONS
  MAXIMUM CONCENTRATION CHANGES FOR EACH ITERATION:
  MAX. CHANGE LAYER,ROW,COL MAX. CHANGE LAYER,ROW,COL MAX. CHANGE LAYER,ROW,COL MAX. CHANGE LAYER,ROW,COL MAX. CHANGE LAYER,ROW,COL
 ------------------------------------------------------------------------------------------------------------------------------------
   0.6633E-02 (  1, 10,  1)  0.3120E-03 (  6,  2,  5)  0.6551E-04 (  6,  2,  5)

 NO OUTPUT CONTROL FOR STRESS PERIOD    1   TIME STEP  45


                                          ================================================
                                                         FROM TIME =   45.000     TO    46.000    

 
 SOLVING FOR HEAD 
 FLOW MODEL IS STEADY-STATE
 FLOW MODEL CONTAINS CONSTANT-HEAD CELLS


 MAXIMUM STEPSIZE DURING WHICH ANY PARTICLE CANNOT MOVE MORE THAN ONE CELL
 =  1.853    (WHEN MIN. R.F.=1)  AT K=   6, I=   1, J=   5

 MAXIMUM STEPSIZE WHICH MEETS STABILITY CRITERION OF THE ADVECTION TERM
 (FOR PURE FINITE-DIFFERENCE OPTION, MIXELM=0) 
 =  1.806    (WHEN MIN. R.F.=1)  AT K=   7, I=   1, J=   5


 TOTAL NUMBER OF POINT SOURCES/SINKS PRESENT IN THE FLOW MODEL =   150

 MAXIMUM STEPSIZE WHICH MEETS STABILITY CRITERION OF THE SINK & SOURCE TERM
 =  69.01    (WHEN MIN. R.F.=1)  AT K=   1, I=   1, J=   1

 MAXIMUM STEPSIZE WHICH MEETS STABILITY CRITERION OF THE DISPERSION TERM
 =  16.70    (WHEN MIN. R.F.=1)  AT K=   1, I=   1, J=   1


     1 CALLS TO GCG PACKAGE FOR TRANSPORT TIME STEP   1 IN FLOW TIME STEP  46 STRESS PERIOD   1
     3 TOTAL ITERATIONS
  MAXIMUM CONCENTRATION CHANGES FOR EACH ITERATION:
  MAX. CHANGE LAYER,ROW,COL MAX. CHANGE LAYER,ROW,COL MAX. CHANGE LAYER,ROW,COL MAX. CHANGE LAYER,ROW,COL MAX. CHANGE LAYER,ROW,COL
 ------------------------------------------------------------------------------------------------------------------------------------
   0.6566E-02 (  1, 10,  1)  0.3009E-03 (  6,  2,  5)  0.6452E-04 (  6,  2,  5)

 NO OUTPUT CONTROL FOR STRESS PERIOD    1   TIME STEP  46


                                          ================================================
                                                         FROM TIME =   46.000     TO    47.000    

 
 SOLVING FOR HEAD 
 FLOW MODEL IS STEADY-STATE
 FLOW MODEL CONTAINS CONSTANT-HEAD CELLS


 MAXIMUM STEPSIZE DURING WHICH ANY PARTICLE CANNOT MOVE MORE THAN ONE CELL
 =  1.861    (WHEN MIN. R.F.=1)  AT K=   7, I=   1, J=   5

 MAXIMUM STEPSIZE WHICH MEETS STABILITY CRITERION OF THE ADVECTION TERM
 (FOR PURE FINITE-DIFFERENCE OPTION, MIXELM=0) 
 =  1.815    (WHEN MIN. R.F.=1)  AT K=   7, I=   1, J=   5


 TOTAL NUMBER OF POINT SOURCES/SINKS PRESENT IN THE FLOW MODEL =   150

 MAXIMUM STEPSIZE WHICH MEETS STABILITY CRITERION OF THE SINK & SOURCE TERM
 =  69.01    (WHEN MIN. R.F.=1)  AT K=   1, I=   1, J=   1

 MAXIMUM STEPSIZE WHICH MEETS STABILITY CRITERION OF THE DISPERSION TERM
 =  16.70    (WHEN MIN. R.F.=1)  AT K=   1, I=   1, J=   1


     1 CALLS TO GCG PACKAGE FOR TRANSPORT TIME STEP   1 IN FLOW TIME STEP  47 STRESS PERIOD   1
     3 TOTAL ITERATIONS
  MAXIMUM CONCENTRATION CHANGES FOR EACH ITERATION:
  MAX. CHANGE LAYER,ROW,COL MAX. CHANGE LAYER,ROW,COL MAX. CHANGE LAYER,ROW,COL MAX. CHANGE LAYER,ROW,COL MAX. CHANGE LAYER,ROW,COL
 ------------------------------------------------------------------------------------------------------------------------------------
   0.6444E-02 (  1, 10,  1)  0.2902E-03 (  6,  2,  5)  0.6329E-04 (  6,  2,  5)

 NO OUTPUT CONTROL FOR STRESS PERIOD    1   TIME STEP  47


                                          ================================================
                                                         FROM TIME =   47.000     TO    48.000    

 
 SOLVING FOR HEAD 
 FLOW MODEL IS STEADY-STATE
 FLOW MODEL CONTAINS CONSTANT-HEAD CELLS


 MAXIMUM STEPSIZE DURING WHICH ANY PARTICLE CANNOT MOVE MORE THAN ONE CELL
 =  1.868    (WHEN MIN. R.F.=1)  AT K=   7, I=   1, J=   5

 MAXIMUM STEPSIZE WHICH MEETS STABILITY CRITERION OF THE ADVECTION TERM
 (FOR PURE FINITE-DIFFERENCE OPTION, MIXELM=0) 
 =  1.823    (WHEN MIN. R.F.=1)  AT K=   7, I=   1, J=   5


 TOTAL NUMBER OF POINT SOURCES/SINKS PRESENT IN THE FLOW MODEL =   150

 MAXIMUM STEPSIZE WHICH MEETS STABILITY CRITERION OF THE SINK & SOURCE TERM
 =  69.01    (WHEN MIN. R.F.=1)  AT K=   1, I=   1, J=   1

 MAXIMUM STEPSIZE WHICH MEETS STABILITY CRITERION OF THE DISPERSION TERM
 =  16.70    (WHEN MIN. R.F.=1)  AT K=   1, I=   1, J=   1


     1 CALLS TO GCG PACKAGE FOR TRANSPORT TIME STEP   1 IN FLOW TIME STEP  48 STRESS PERIOD   1
     3 TOTAL ITERATIONS
  MAXIMUM CONCENTRATION CHANGES FOR EACH ITERATION:
  MAX. CHANGE LAYER,ROW,COL MAX. CHANGE LAYER,ROW,COL MAX. CHANGE LAYER,ROW,COL MAX. CHANGE LAYER,ROW,COL MAX. CHANGE LAYER,ROW,COL
 ------------------------------------------------------------------------------------------------------------------------------------
   0.6280E-02 (  1, 10,  1)  0.2800E-03 (  6,  2,  5)  0.6187E-04 (  6,  2,  5)

 NO OUTPUT CONTROL FOR STRESS PERIOD    1   TIME STEP  48


                                          ================================================
                                                         FROM TIME =   48.000     TO    49.000    

 
 SOLVING FOR HEAD 
 FLOW MODEL IS STEADY-STATE
 FLOW MODEL CONTAINS CONSTANT-HEAD CELLS


 MAXIMUM STEPSIZE DURING WHICH ANY PARTICLE CANNOT MOVE MORE THAN ONE CELL
 =  1.875    (WHEN MIN. R.F.=1)  AT K=   7, I=   1, J=   5

 MAXIMUM STEPSIZE WHICH MEETS STABILITY CRITERION OF THE ADVECTION TERM
 (FOR PURE FINITE-DIFFERENCE OPTION, MIXELM=0) 
 =  1.831    (WHEN MIN. R.F.=1)  AT K=   7, I=   1, J=   5


 TOTAL NUMBER OF POINT SOURCES/SINKS PRESENT IN THE FLOW MODEL =   150

 MAXIMUM STEPSIZE WHICH MEETS STABILITY CRITERION OF THE SINK & SOURCE TERM
 =  69.01    (WHEN MIN. R.F.=1)  AT K=   1, I=   1, J=   1

 MAXIMUM STEPSIZE WHICH MEETS STABILITY CRITERION OF THE DISPERSION TERM
 =  16.70    (WHEN MIN. R.F.=1)  AT K=   1, I=   1, J=   1


     1 CALLS TO GCG PACKAGE FOR TRANSPORT TIME STEP   1 IN FLOW TIME STEP  49 STRESS PERIOD   1
     3 TOTAL ITERATIONS
  MAXIMUM CONCENTRATION CHANGES FOR EACH ITERATION:
  MAX. CHANGE LAYER,ROW,COL MAX. CHANGE LAYER,ROW,COL MAX. CHANGE LAYER,ROW,COL MAX. CHANGE LAYER,ROW,COL MAX. CHANGE LAYER,ROW,COL
 ------------------------------------------------------------------------------------------------------------------------------------
   0.6086E-02 (  1, 10,  1)  0.2705E-03 (  6,  2,  5)  0.6036E-04 (  6,  2,  5)

 NO OUTPUT CONTROL FOR STRESS PERIOD    1   TIME STEP  49


                                          ================================================
                                                         FROM TIME =   49.000     TO    50.000    

 
 SOLVING FOR HEAD 
 FLOW MODEL IS STEADY-STATE
 FLOW MODEL CONTAINS CONSTANT-HEAD CELLS


 MAXIMUM STEPSIZE DURING WHICH ANY PARTICLE CANNOT MOVE MORE THAN ONE CELL
 =  1.882    (WHEN MIN. R.F.=1)  AT K=   7, I=   1, J=   5

 MAXIMUM STEPSIZE WHICH MEETS STABILITY CRITERION OF THE ADVECTION TERM
 (FOR PURE FINITE-DIFFERENCE OPTION, MIXELM=0) 
 =  1.840    (WHEN MIN. R.F.=1)  AT K=   7, I=   1, J=   5


 TOTAL NUMBER OF POINT SOURCES/SINKS PRESENT IN THE FLOW MODEL =   150

 MAXIMUM STEPSIZE WHICH MEETS STABILITY CRITERION OF THE SINK & SOURCE TERM
 =  69.01    (WHEN MIN. R.F.=1)  AT K=   1, I=   1, J=   1

 MAXIMUM STEPSIZE WHICH MEETS STABILITY CRITERION OF THE DISPERSION TERM
 =  16.70    (WHEN MIN. R.F.=1)  AT K=   1, I=   1, J=   1


     1 CALLS TO GCG PACKAGE FOR TRANSPORT TIME STEP   1 IN FLOW TIME STEP  50 STRESS PERIOD   1
     3 TOTAL ITERATIONS
  MAXIMUM CONCENTRATION CHANGES FOR EACH ITERATION:
  MAX. CHANGE LAYER,ROW,COL MAX. CHANGE LAYER,ROW,COL MAX. CHANGE LAYER,ROW,COL MAX. CHANGE LAYER,ROW,COL MAX. CHANGE LAYER,ROW,COL
 ------------------------------------------------------------------------------------------------------------------------------------
   0.6129E-02 (  1, 11,  1)  0.2616E-03 (  6,  2,  5)  0.5883E-04 (  6,  2,  5)

 NO OUTPUT CONTROL FOR STRESS PERIOD    1   TIME STEP  50



 >>>>>>>>>>>>>>>>>>>>>>>>>>>>>>>>>>>>>>>>>>>>>>>>>>>>>>>FOR COMPONENT NO. 01<<<<<<<<<<<<<<<<<<<<<<<<<<<<<<<<<<<<<<<<<<<<<<<<<<<<<<<


                                            -------------------------------------------
                                                      TRANSPORT STEP NO.    1
                                            -------------------------------------------

 TOTAL ELAPSED TIME SINCE BEGINNING OF SIMULATION =   50.00000    D   
 .....................................................................

                     CUMULATIVE MASS BUDGETS AT END OF TRANSPORT STEP    1, TIME STEP   50, STRESS PERIOD    1
                     ------------------------------------------------------------------------------------------

                                                             IN                           OUT
                                                      ----------------             ----------------
                               CONSTANT CONCENTRATION:    0.000000                    0.000000    
                                        CONSTANT HEAD:    0.000000                   -221893.6    
                                                WELLS:    0.000000                   -221900.0    
                               MASS STOR (FLOW MODEL):    0.000000                    0.000000    
                                MASS STORAGE (SOLUTE):    443814.0                   -51.45816    
                            ---------------------------------------------------------------------------
                                              [TOTAL]:    443814.0     KG            -443845.0     KG  

                                                          NET (IN - OUT):   -31.01745    
                                                   DISCREPANCY (PERCENT):  -0.6988596E-02
1
  MASS BUDGET FOR ENTIRE MODEL AT END OF TIME STEP 50 IN STRESS PERIOD   1
  ------------------------------------------------------------------------------

     CUMULATIVE MASS      M       RATES FOR THIS TIME STEP      M/T
     ------------------                 ------------------------

           IN:                                      IN:
           ---                                      ---
             STORAGE =           0.0000               STORAGE =           0.0000
       CONSTANT HEAD =           0.0000         CONSTANT HEAD =           0.0000
               WELLS =    12680000.0000                 WELLS =      253600.0000
                DCDT =      316855.1695                  DCDT =        6340.5996

            TOTAL IN =    12996855.1695              TOTAL IN =      259940.5996

          OUT:                                     OUT:
          ----                                     ----
             STORAGE =           0.0000               STORAGE =           0.0000
       CONSTANT HEAD =     6498315.2429         CONSTANT HEAD =      129970.5362
               WELLS =     6498503.1700                 WELLS =      129970.0634
                DCDT =          36.7566                  DCDT =       3.6197E-06

           TOTAL OUT =    12996855.1695             TOTAL OUT =      259940.5996

            IN - OUT =       5.6922E-06              IN - OUT =       5.5309E-07

 PERCENT DISCREPANCY =           0.00     PERCENT DISCREPANCY =           0.00



0


          TIME SUMMARY AT END OF TRANSPORT STEP    1 IN TIME STEP   50 IN STRESS PERIOD   1
                    SECONDS     MINUTES      HOURS       DAYS        YEARS
                    -----------------------------------------------------------
  TRANS STEP LENGTH  86400.      1440.0      24.000      1.0000     2.73785E-03
   TIME STEP LENGTH  86400.      1440.0      24.000      1.0000     2.73785E-03
 STRESS PERIOD TIME 4.32000E+06  72000.      1200.0      50.000     0.13689    
         TOTAL TIME 4.32000E+06  72000.      1200.0      50.000     0.13689    
1
