                                  MODFLOW-2005     
      U.S. GEOLOGICAL SURVEY MODULAR FINITE-DIFFERENCE GROUND-WATER FLOW MODEL
                            VERSION 1.12.00 2/3/2017

 LIST FILE: Tutorial02.list
                         UNIT    2

 OPENING Tutorial02.dis
 FILE TYPE:DIS   UNIT   11   STATUS:OLD    
 FORMAT:FORMATTED              ACCESS:SEQUENTIAL          

 OPENING Tutorial02.bas
 FILE TYPE:BAS6   UNIT   13   STATUS:OLD    
 FORMAT:FORMATTED              ACCESS:SEQUENTIAL          

 OPENING Tutorial02.lpf
 FILE TYPE:LPF   UNIT   15   STATUS:OLD    
 FORMAT:FORMATTED              ACCESS:SEQUENTIAL          

 OPENING Tutorial02.pcg
 FILE TYPE:PCG   UNIT   27   STATUS:OLD    
 FORMAT:FORMATTED              ACCESS:SEQUENTIAL          

 OPENING Tutorial02.ghb
 FILE TYPE:GHB   UNIT   23   STATUS:OLD    
 FORMAT:FORMATTED              ACCESS:SEQUENTIAL          

 OPENING Tutorial02.wel
 FILE TYPE:WEL   UNIT   20   STATUS:OLD    
 FORMAT:FORMATTED              ACCESS:SEQUENTIAL          

 OPENING Tutorial02.oc
 FILE TYPE:OC   UNIT   14   STATUS:OLD    
 FORMAT:FORMATTED              ACCESS:SEQUENTIAL          

 OPENING Tutorial02.cbc
 FILE TYPE:DATA(BINARY)   UNIT   53   STATUS:REPLACE
 FORMAT:UNFORMATTED            ACCESS:STREAM              

 OPENING Tutorial02.hds
 FILE TYPE:DATA(BINARY)   UNIT   51   STATUS:REPLACE
 FORMAT:UNFORMATTED            ACCESS:STREAM              

 OPENING Tutorial02.ddn
 FILE TYPE:DATA(BINARY)   UNIT   52   STATUS:REPLACE
 FORMAT:UNFORMATTED            ACCESS:STREAM              

 BAS -- BASIC PACKAGE, VERSION 7, 5/2/2005 INPUT READ FROM UNIT   13
 
 MODFLOW was compiled using mixed precision
 Precision of REAL variables:           6
 Precision of DOUBLE PRECISION variables:          15

 DISCRETIZATION INPUT DATA READ FROM UNIT   11
 # DIS package for  MODFLOW-2005, generated by Flopy.
    5 LAYERS        10 ROWS        10 COLUMNS
    3 STRESS PERIOD(S) IN SIMULATION
 MODEL TIME UNIT IS DAYS
 MODEL LENGTH UNIT IS METERS
  Confining bed flag for each layer:
   0   0   0   0   0

                     DELR =   100.000    

                     DELC =   100.000    

 TOP ELEVATION OF LAYER 1 =   10.0000    

   MODEL LAYER BOTTOM EL. =  -2.00000     FOR LAYER   1

   MODEL LAYER BOTTOM EL. =  -14.0000     FOR LAYER   2

   MODEL LAYER BOTTOM EL. =  -26.0000     FOR LAYER   3

   MODEL LAYER BOTTOM EL. =  -38.0000     FOR LAYER   4

   MODEL LAYER BOTTOM EL. =  -50.0000     FOR LAYER   5


 STRESS PERIOD     LENGTH       TIME STEPS     MULTIPLIER FOR DELT    SS FLAG
 ----------------------------------------------------------------------------
        1         1.000000          1                    1.000         SS
        2         100.0000        100                    1.000         TR
        3         100.0000        100                    1.000         TR

 COMBINED STEADY-STATE AND TRANSIENT SIMULATION



 
 # BAS6 package for  MODFLOW-2005, generated by Flopy.                           
 THE FREE FORMAT OPTION HAS BEEN SELECTED



                     BOUNDARY ARRAY FOR LAYER   1
 READING ON UNIT   13 WITH FORMAT: (10I10)             



                     BOUNDARY ARRAY FOR LAYER   2
 READING ON UNIT   13 WITH FORMAT: (10I10)             



                     BOUNDARY ARRAY FOR LAYER   3
 READING ON UNIT   13 WITH FORMAT: (10I10)             



                     BOUNDARY ARRAY FOR LAYER   4
 READING ON UNIT   13 WITH FORMAT: (10I10)             



                     BOUNDARY ARRAY FOR LAYER   5
 READING ON UNIT   13 WITH FORMAT: (10I10)             

 AQUIFER HEAD WILL BE SET TO  -999.99     AT ALL NO-FLOW NODES (IBOUND=0).



                       INITIAL HEAD FOR LAYER   1
 READING ON UNIT   13 WITH FORMAT: (10E15.6)           



                       INITIAL HEAD FOR LAYER   2
 READING ON UNIT   13 WITH FORMAT: (10E15.6)           



                       INITIAL HEAD FOR LAYER   3
 READING ON UNIT   13 WITH FORMAT: (10E15.6)           



                       INITIAL HEAD FOR LAYER   4
 READING ON UNIT   13 WITH FORMAT: (10E15.6)           



                       INITIAL HEAD FOR LAYER   5
 READING ON UNIT   13 WITH FORMAT: (10E15.6)           
 # OC package for  MODFLOW-2005, generated by Flopy.

 OUTPUT CONTROL IS SPECIFIED ONLY AT TIME STEPS FOR WHICH OUTPUT IS DESIRED
 COMPACT CELL-BY-CELL BUDGET FILES WILL BE WRITTEN
 AUXILIARY DATA WILL BE SAVED IN CELL-BY-CELL BUDGET FILES
 HEAD PRINT FORMAT CODE IS   0    DRAWDOWN PRINT FORMAT CODE IS   0
 HEADS WILL BE SAVED ON UNIT   51    DRAWDOWNS WILL BE SAVED ON UNIT   52

 LPF -- LAYER-PROPERTY FLOW PACKAGE, VERSION 7, 5/2/2005
         INPUT READ FROM UNIT   15
 # LPF package for  MODFLOW-2005, generated by Flopy.
 CELL-BY-CELL FLOWS WILL BE SAVED ON UNIT   53
 HEAD AT CELLS THAT CONVERT TO DRY= -1.00000E+30
 No named parameters

   LAYER FLAGS:
 LAYER       LAYTYP        LAYAVG         CHANI        LAYVKA        LAYWET
 ---------------------------------------------------------------------------
    1             1             0     1.000E+00             0             0
    2             1             0     1.000E+00             0             0
    3             1             0     1.000E+00             0             0
    4             1             0     1.000E+00             0             0
    5             1             0     1.000E+00             0             0

   INTERPRETATION OF LAYER FLAGS:
                        INTERBLOCK     HORIZONTAL    DATA IN
         LAYER TYPE   TRANSMISSIVITY   ANISOTROPY   ARRAY VKA   WETTABILITY
 LAYER      (LAYTYP)      (LAYAVG)       (CHANI)      (LAYVKA)      (LAYWET)
 ---------------------------------------------------------------------------
    1   CONVERTIBLE      HARMONIC     1.000E+00    VERTICAL K  NON-WETTABLE
    2   CONVERTIBLE      HARMONIC     1.000E+00    VERTICAL K  NON-WETTABLE
    3   CONVERTIBLE      HARMONIC     1.000E+00    VERTICAL K  NON-WETTABLE
    4   CONVERTIBLE      HARMONIC     1.000E+00    VERTICAL K  NON-WETTABLE
    5   CONVERTIBLE      HARMONIC     1.000E+00    VERTICAL K  NON-WETTABLE

 WETTING CAPABILITY IS NOT ACTIVE IN ANY LAYER

    HYD. COND. ALONG ROWS =   1.00000     FOR LAYER   1

      VERTICAL HYD. COND. =   1.00000     FOR LAYER   1

         SPECIFIC STORAGE =  1.000000E-04 FOR LAYER   1

           SPECIFIC YIELD =  0.100000     FOR LAYER   1

    HYD. COND. ALONG ROWS =   1.00000     FOR LAYER   2

      VERTICAL HYD. COND. =   1.00000     FOR LAYER   2

         SPECIFIC STORAGE =  1.000000E-04 FOR LAYER   2

           SPECIFIC YIELD =  0.100000     FOR LAYER   2

    HYD. COND. ALONG ROWS =   1.00000     FOR LAYER   3

      VERTICAL HYD. COND. =   1.00000     FOR LAYER   3

         SPECIFIC STORAGE =  1.000000E-04 FOR LAYER   3

           SPECIFIC YIELD =  0.100000     FOR LAYER   3

    HYD. COND. ALONG ROWS =   1.00000     FOR LAYER   4

      VERTICAL HYD. COND. =   1.00000     FOR LAYER   4

         SPECIFIC STORAGE =  1.000000E-04 FOR LAYER   4

           SPECIFIC YIELD =  0.100000     FOR LAYER   4

    HYD. COND. ALONG ROWS =   1.00000     FOR LAYER   5

      VERTICAL HYD. COND. =   1.00000     FOR LAYER   5

         SPECIFIC STORAGE =  1.000000E-04 FOR LAYER   5

           SPECIFIC YIELD =  0.100000     FOR LAYER   5

 WEL -- WELL PACKAGE, VERSION 7, 5/2/2005 INPUT READ FROM UNIT   20
 # WEL package for  MODFLOW-2005, generated by Flopy.
 No named parameters
 MAXIMUM OF      1 ACTIVE WELLS AT ONE TIME


     0 Well parameters

 GHB -- GENERAL-HEAD BOUNDARY PACKAGE, VERSION 7, 5/2/2005
         INPUT READ FROM UNIT   23
 # GHB package for  MODFLOW-2005, generated by Flopy.
 No named parameters
 MAXIMUM OF    100 ACTIVE GHB CELLS AT ONE TIME


     0 GHB parameters

 PCG -- CONJUGATE-GRADIENT SOLUTION PACKAGE, VERSION 7, 5/2/2005
 # PCG package for  MODFLOW-2005, generated by Flopy.
 MAXIMUM OF     50 CALLS OF SOLUTION ROUTINE
 MAXIMUM OF     30 INTERNAL ITERATIONS PER CALL TO SOLUTION ROUTINE
 MATRIX PRECONDITIONING TYPE :    1



                                    SOLUTION BY THE CONJUGATE-GRADIENT METHOD
                                   -------------------------------------------
                    MAXIMUM NUMBER OF CALLS TO PCG ROUTINE =       50
                        MAXIMUM ITERATIONS PER CALL TO PCG =       30
                               MATRIX PRECONDITIONING TYPE =        1
        RELAXATION FACTOR (ONLY USED WITH PRECOND. TYPE 1) =    0.10000E+01
 PARAMETER OF POLYNOMIAL PRECOND. = 2 (2) OR IS CALCULATED :        0
                         HEAD CHANGE CRITERION FOR CLOSURE =    0.10000E-04
                     RESIDUAL CHANGE CRITERION FOR CLOSURE =    0.10000E-04
            PCG HEAD AND RESIDUAL CHANGE PRINTOUT INTERVAL =      999
     PRINTING FROM SOLVER IS LIMITED(1) OR SUPPRESSED (>1) =        3
                            STEADY-STATE DAMPING PARAMETER =    0.10000E+01
                               TRANSIENT DAMPING PARAMETER =    0.10000E+01
1
                            STRESS PERIOD NO.    1, LENGTH =   1.000000    
                            -----------------------------------------------

                              NUMBER OF TIME STEPS =     1

                               MULTIPLIER FOR DELT =     1.000

                            INITIAL TIME STEP SIZE =   1.000000    

 WELL NO.  LAYER   ROW   COL   STRESS RATE         
 --------------------------------------------------
      1      1      5      5       0.000    

      1 WELL 

 BOUND. NO. LAYER   ROW   COL     STAGE      CONDUCTANCE         
 ----------------------------------------------------------------
      1      1      1      1       10.00           6000.    
      2      1      1     10       10.00           6000.    
      3      1      2      1       10.00           6000.    
      4      1      2     10       10.00           6000.    
      5      1      3      1       10.00           6000.    
      6      1      3     10       10.00           6000.    
      7      1      4      1       10.00           6000.    
      8      1      4     10       10.00           6000.    
      9      1      5      1       10.00           6000.    
     10      1      5     10       10.00           6000.    
     11      1      6      1       10.00           6000.    
     12      1      6     10       10.00           6000.    
     13      1      7      1       10.00           6000.    
     14      1      7     10       10.00           6000.    
     15      1      8      1       10.00           6000.    
     16      1      8     10       10.00           6000.    
     17      1      9      1       10.00           6000.    
     18      1      9     10       10.00           6000.    
     19      1     10      1       10.00           6000.    
     20      1     10     10       10.00           6000.    
     21      2      1      1       10.00           6000.    
     22      2      1     10       10.00           6000.    
     23      2      2      1       10.00           6000.    
     24      2      2     10       10.00           6000.    
     25      2      3      1       10.00           6000.    
     26      2      3     10       10.00           6000.    
     27      2      4      1       10.00           6000.    
     28      2      4     10       10.00           6000.    
     29      2      5      1       10.00           6000.    
     30      2      5     10       10.00           6000.    
     31      2      6      1       10.00           6000.    
     32      2      6     10       10.00           6000.    
     33      2      7      1       10.00           6000.    
     34      2      7     10       10.00           6000.    
     35      2      8      1       10.00           6000.    
     36      2      8     10       10.00           6000.    
     37      2      9      1       10.00           6000.    
     38      2      9     10       10.00           6000.    
     39      2     10      1       10.00           6000.    
     40      2     10     10       10.00           6000.    
     41      3      1      1       10.00           6000.    
     42      3      1     10       10.00           6000.    
     43      3      2      1       10.00           6000.    
     44      3      2     10       10.00           6000.    
     45      3      3      1       10.00           6000.    
     46      3      3     10       10.00           6000.    
     47      3      4      1       10.00           6000.    
     48      3      4     10       10.00           6000.    
     49      3      5      1       10.00           6000.    
     50      3      5     10       10.00           6000.    
     51      3      6      1       10.00           6000.    
     52      3      6     10       10.00           6000.    
     53      3      7      1       10.00           6000.    
     54      3      7     10       10.00           6000.    
     55      3      8      1       10.00           6000.    
     56      3      8     10       10.00           6000.    
     57      3      9      1       10.00           6000.    
     58      3      9     10       10.00           6000.    
     59      3     10      1       10.00           6000.    
     60      3     10     10       10.00           6000.    
     61      4      1      1       10.00           6000.    
     62      4      1     10       10.00           6000.    
     63      4      2      1       10.00           6000.    
     64      4      2     10       10.00           6000.    
     65      4      3      1       10.00           6000.    
     66      4      3     10       10.00           6000.    
     67      4      4      1       10.00           6000.    
     68      4      4     10       10.00           6000.    
     69      4      5      1       10.00           6000.    
     70      4      5     10       10.00           6000.    
     71      4      6      1       10.00           6000.    
     72      4      6     10       10.00           6000.    
     73      4      7      1       10.00           6000.    
     74      4      7     10       10.00           6000.    
     75      4      8      1       10.00           6000.    
     76      4      8     10       10.00           6000.    
     77      4      9      1       10.00           6000.    
     78      4      9     10       10.00           6000.    
     79      4     10      1       10.00           6000.    
     80      4     10     10       10.00           6000.    
     81      5      1      1       10.00           6000.    
     82      5      1     10       10.00           6000.    
     83      5      2      1       10.00           6000.    
     84      5      2     10       10.00           6000.    
     85      5      3      1       10.00           6000.    
     86      5      3     10       10.00           6000.    
     87      5      4      1       10.00           6000.    
     88      5      4     10       10.00           6000.    
     89      5      5      1       10.00           6000.    
     90      5      5     10       10.00           6000.    
     91      5      6      1       10.00           6000.    
     92      5      6     10       10.00           6000.    
     93      5      7      1       10.00           6000.    
     94      5      7     10       10.00           6000.    
     95      5      8      1       10.00           6000.    
     96      5      8     10       10.00           6000.    
     97      5      9      1       10.00           6000.    
     98      5      9     10       10.00           6000.    
     99      5     10      1       10.00           6000.    
    100      5     10     10       10.00           6000.    

    100 GHB CELLS
 
 SOLVING FOR HEAD 

 OUTPUT CONTROL FOR STRESS PERIOD    1   TIME STEP    1
    SAVE HEAD FOR ALL LAYERS
    SAVE DRAWDOWN FOR ALL LAYERS
    SAVE BUDGET
    PRINT HEAD FOR ALL LAYERS
    PRINT BUDGET
 UBDSV2 SAVING "   CONSTANT HEAD" ON UNIT  53 AT TIME STEP  1, STRESS PERIOD   1
 UBDSV1 SAVING "FLOW RIGHT FACE " ON UNIT  53 AT TIME STEP  1, STRESS PERIOD   1
 UBDSV1 SAVING "FLOW FRONT FACE " ON UNIT  53 AT TIME STEP  1, STRESS PERIOD   1
 UBDSV1 SAVING "FLOW LOWER FACE " ON UNIT  53 AT TIME STEP  1, STRESS PERIOD   1
1
              HEAD IN LAYER   1 AT END OF TIME STEP   1 IN STRESS PERIOD    1
  ---------------------------------------------------------------------------

            1           2           3           4           5           6           7           8           9          10
 ........................................................................................................................
   1    10.00       10.00       10.00       10.00       10.00       10.00       10.00       10.00       10.00       10.00    
   2    10.00       10.00       10.00       10.00       10.00       10.00       10.00       10.00       10.00       10.00    
   3    10.00       10.00       10.00       10.00       10.00       10.00       10.00       10.00       10.00       10.00    
   4    10.00       10.00       10.00       10.00       10.00       10.00       10.00       10.00       10.00       10.00    
   5    10.00       10.00       10.00       10.00       10.00       10.00       10.00       10.00       10.00       10.00    
   6    10.00       10.00       10.00       10.00       10.00       10.00       10.00       10.00       10.00       10.00    
   7    10.00       10.00       10.00       10.00       10.00       10.00       10.00       10.00       10.00       10.00    
   8    10.00       10.00       10.00       10.00       10.00       10.00       10.00       10.00       10.00       10.00    
   9    10.00       10.00       10.00       10.00       10.00       10.00       10.00       10.00       10.00       10.00    
  10    10.00       10.00       10.00       10.00       10.00       10.00       10.00       10.00       10.00       10.00    
1
              HEAD IN LAYER   2 AT END OF TIME STEP   1 IN STRESS PERIOD    1
  ---------------------------------------------------------------------------

            1           2           3           4           5           6           7           8           9          10
 ........................................................................................................................
   1    10.00       10.00       10.00       10.00       10.00       10.00       10.00       10.00       10.00       10.00    
   2    10.00       10.00       10.00       10.00       10.00       10.00       10.00       10.00       10.00       10.00    
   3    10.00       10.00       10.00       10.00       10.00       10.00       10.00       10.00       10.00       10.00    
   4    10.00       10.00       10.00       10.00       10.00       10.00       10.00       10.00       10.00       10.00    
   5    10.00       10.00       10.00       10.00       10.00       10.00       10.00       10.00       10.00       10.00    
   6    10.00       10.00       10.00       10.00       10.00       10.00       10.00       10.00       10.00       10.00    
   7    10.00       10.00       10.00       10.00       10.00       10.00       10.00       10.00       10.00       10.00    
   8    10.00       10.00       10.00       10.00       10.00       10.00       10.00       10.00       10.00       10.00    
   9    10.00       10.00       10.00       10.00       10.00       10.00       10.00       10.00       10.00       10.00    
  10    10.00       10.00       10.00       10.00       10.00       10.00       10.00       10.00       10.00       10.00    
1
              HEAD IN LAYER   3 AT END OF TIME STEP   1 IN STRESS PERIOD    1
  ---------------------------------------------------------------------------

            1           2           3           4           5           6           7           8           9          10
 ........................................................................................................................
   1    10.00       10.00       10.00       10.00       10.00       10.00       10.00       10.00       10.00       10.00    
   2    10.00       10.00       10.00       10.00       10.00       10.00       10.00       10.00       10.00       10.00    
   3    10.00       10.00       10.00       10.00       10.00       10.00       10.00       10.00       10.00       10.00    
   4    10.00       10.00       10.00       10.00       10.00       10.00       10.00       10.00       10.00       10.00    
   5    10.00       10.00       10.00       10.00       10.00       10.00       10.00       10.00       10.00       10.00    
   6    10.00       10.00       10.00       10.00       10.00       10.00       10.00       10.00       10.00       10.00    
   7    10.00       10.00       10.00       10.00       10.00       10.00       10.00       10.00       10.00       10.00    
   8    10.00       10.00       10.00       10.00       10.00       10.00       10.00       10.00       10.00       10.00    
   9    10.00       10.00       10.00       10.00       10.00       10.00       10.00       10.00       10.00       10.00    
  10    10.00       10.00       10.00       10.00       10.00       10.00       10.00       10.00       10.00       10.00    
1
              HEAD IN LAYER   4 AT END OF TIME STEP   1 IN STRESS PERIOD    1
  ---------------------------------------------------------------------------

            1           2           3           4           5           6           7           8           9          10
 ........................................................................................................................
   1    10.00       10.00       10.00       10.00       10.00       10.00       10.00       10.00       10.00       10.00    
   2    10.00       10.00       10.00       10.00       10.00       10.00       10.00       10.00       10.00       10.00    
   3    10.00       10.00       10.00       10.00       10.00       10.00       10.00       10.00       10.00       10.00    
   4    10.00       10.00       10.00       10.00       10.00       10.00       10.00       10.00       10.00       10.00    
   5    10.00       10.00       10.00       10.00       10.00       10.00       10.00       10.00       10.00       10.00    
   6    10.00       10.00       10.00       10.00       10.00       10.00       10.00       10.00       10.00       10.00    
   7    10.00       10.00       10.00       10.00       10.00       10.00       10.00       10.00       10.00       10.00    
   8    10.00       10.00       10.00       10.00       10.00       10.00       10.00       10.00       10.00       10.00    
   9    10.00       10.00       10.00       10.00       10.00       10.00       10.00       10.00       10.00       10.00    
  10    10.00       10.00       10.00       10.00       10.00       10.00       10.00       10.00       10.00       10.00    
1
              HEAD IN LAYER   5 AT END OF TIME STEP   1 IN STRESS PERIOD    1
  ---------------------------------------------------------------------------

            1           2           3           4           5           6           7           8           9          10
 ........................................................................................................................
   1    10.00       10.00       10.00       10.00       10.00       10.00       10.00       10.00       10.00       10.00    
   2    10.00       10.00       10.00       10.00       10.00       10.00       10.00       10.00       10.00       10.00    
   3    10.00       10.00       10.00       10.00       10.00       10.00       10.00       10.00       10.00       10.00    
   4    10.00       10.00       10.00       10.00       10.00       10.00       10.00       10.00       10.00       10.00    
   5    10.00       10.00       10.00       10.00       10.00       10.00       10.00       10.00       10.00       10.00    
   6    10.00       10.00       10.00       10.00       10.00       10.00       10.00       10.00       10.00       10.00    
   7    10.00       10.00       10.00       10.00       10.00       10.00       10.00       10.00       10.00       10.00    
   8    10.00       10.00       10.00       10.00       10.00       10.00       10.00       10.00       10.00       10.00    
   9    10.00       10.00       10.00       10.00       10.00       10.00       10.00       10.00       10.00       10.00    
  10    10.00       10.00       10.00       10.00       10.00       10.00       10.00       10.00       10.00       10.00    

 HEAD WILL BE SAVED ON UNIT   51 AT END OF TIME STEP    1, STRESS PERIOD    1

 DRAWDOWN WILL BE SAVED ON UNIT   52 AT END OF TIME STEP    1, STRESS PERIOD    1
1
  VOLUMETRIC BUDGET FOR ENTIRE MODEL AT END OF TIME STEP    1, STRESS PERIOD   1
  ------------------------------------------------------------------------------

     CUMULATIVE VOLUMES      L**3       RATES FOR THIS TIME STEP      L**3/T
     ------------------                 ------------------------

           IN:                                      IN:
           ---                                      ---
             STORAGE =           0.0000               STORAGE =           0.0000
       CONSTANT HEAD =           0.0000         CONSTANT HEAD =           0.0000
               WELLS =           0.0000                 WELLS =           0.0000
     HEAD DEP BOUNDS =           0.0000       HEAD DEP BOUNDS =           0.0000

            TOTAL IN =           0.0000              TOTAL IN =           0.0000

          OUT:                                     OUT:
          ----                                     ----
             STORAGE =           0.0000               STORAGE =           0.0000
       CONSTANT HEAD =           0.0000         CONSTANT HEAD =           0.0000
               WELLS =           0.0000                 WELLS =           0.0000
     HEAD DEP BOUNDS =           0.0000       HEAD DEP BOUNDS =           0.0000

           TOTAL OUT =           0.0000             TOTAL OUT =           0.0000

            IN - OUT =           0.0000              IN - OUT =           0.0000

 PERCENT DISCREPANCY =           0.00     PERCENT DISCREPANCY =           0.00






         TIME SUMMARY AT END OF TIME STEP    1 IN STRESS PERIOD    1
                    SECONDS     MINUTES      HOURS       DAYS        YEARS
                    -----------------------------------------------------------
   TIME STEP LENGTH  86400.      1440.0      24.000      1.0000     2.73785E-03
 STRESS PERIOD TIME  86400.      1440.0      24.000      1.0000     2.73785E-03
         TOTAL TIME  86400.      1440.0      24.000      1.0000     2.73785E-03
1
1
                            STRESS PERIOD NO.    2, LENGTH =   100.0000    
                            -----------------------------------------------

                              NUMBER OF TIME STEPS =   100

                               MULTIPLIER FOR DELT =     1.000

                            INITIAL TIME STEP SIZE =   1.000000    

 WELL NO.  LAYER   ROW   COL   STRESS RATE         
 --------------------------------------------------
      1      1      5      5       0.000    

      1 WELL 

 BOUND. NO. LAYER   ROW   COL     STAGE      CONDUCTANCE         
 ----------------------------------------------------------------
      1      1      1      1       10.00           6000.    
      2      1      1     10       0.000           5000.    
      3      1      2      1       10.00           6000.    
      4      1      2     10       0.000           5000.    
      5      1      3      1       10.00           6000.    
      6      1      3     10       0.000           5000.    
      7      1      4      1       10.00           6000.    
      8      1      4     10       0.000           5000.    
      9      1      5      1       10.00           6000.    
     10      1      5     10       0.000           5000.    
     11      1      6      1       10.00           6000.    
     12      1      6     10       0.000           5000.    
     13      1      7      1       10.00           6000.    
     14      1      7     10       0.000           5000.    
     15      1      8      1       10.00           6000.    
     16      1      8     10       0.000           5000.    
     17      1      9      1       10.00           6000.    
     18      1      9     10       0.000           5000.    
     19      1     10      1       10.00           6000.    
     20      1     10     10       0.000           5000.    
     21      2      1      1       10.00           6000.    
     22      2      1     10       0.000           5000.    
     23      2      2      1       10.00           6000.    
     24      2      2     10       0.000           5000.    
     25      2      3      1       10.00           6000.    
     26      2      3     10       0.000           5000.    
     27      2      4      1       10.00           6000.    
     28      2      4     10       0.000           5000.    
     29      2      5      1       10.00           6000.    
     30      2      5     10       0.000           5000.    
     31      2      6      1       10.00           6000.    
     32      2      6     10       0.000           5000.    
     33      2      7      1       10.00           6000.    
     34      2      7     10       0.000           5000.    
     35      2      8      1       10.00           6000.    
     36      2      8     10       0.000           5000.    
     37      2      9      1       10.00           6000.    
     38      2      9     10       0.000           5000.    
     39      2     10      1       10.00           6000.    
     40      2     10     10       0.000           5000.    
     41      3      1      1       10.00           6000.    
     42      3      1     10       0.000           5000.    
     43      3      2      1       10.00           6000.    
     44      3      2     10       0.000           5000.    
     45      3      3      1       10.00           6000.    
     46      3      3     10       0.000           5000.    
     47      3      4      1       10.00           6000.    
     48      3      4     10       0.000           5000.    
     49      3      5      1       10.00           6000.    
     50      3      5     10       0.000           5000.    
     51      3      6      1       10.00           6000.    
     52      3      6     10       0.000           5000.    
     53      3      7      1       10.00           6000.    
     54      3      7     10       0.000           5000.    
     55      3      8      1       10.00           6000.    
     56      3      8     10       0.000           5000.    
     57      3      9      1       10.00           6000.    
     58      3      9     10       0.000           5000.    
     59      3     10      1       10.00           6000.    
     60      3     10     10       0.000           5000.    
     61      4      1      1       10.00           6000.    
     62      4      1     10       0.000           5000.    
     63      4      2      1       10.00           6000.    
     64      4      2     10       0.000           5000.    
     65      4      3      1       10.00           6000.    
     66      4      3     10       0.000           5000.    
     67      4      4      1       10.00           6000.    
     68      4      4     10       0.000           5000.    
     69      4      5      1       10.00           6000.    
     70      4      5     10       0.000           5000.    
     71      4      6      1       10.00           6000.    
     72      4      6     10       0.000           5000.    
     73      4      7      1       10.00           6000.    
     74      4      7     10       0.000           5000.    
     75      4      8      1       10.00           6000.    
     76      4      8     10       0.000           5000.    
     77      4      9      1       10.00           6000.    
     78      4      9     10       0.000           5000.    
     79      4     10      1       10.00           6000.    
     80      4     10     10       0.000           5000.    
     81      5      1      1       10.00           6000.    
     82      5      1     10       0.000           5000.    
     83      5      2      1       10.00           6000.    
     84      5      2     10       0.000           5000.    
     85      5      3      1       10.00           6000.    
     86      5      3     10       0.000           5000.    
     87      5      4      1       10.00           6000.    
     88      5      4     10       0.000           5000.    
     89      5      5      1       10.00           6000.    
     90      5      5     10       0.000           5000.    
     91      5      6      1       10.00           6000.    
     92      5      6     10       0.000           5000.    
     93      5      7      1       10.00           6000.    
     94      5      7     10       0.000           5000.    
     95      5      8      1       10.00           6000.    
     96      5      8     10       0.000           5000.    
     97      5      9      1       10.00           6000.    
     98      5      9     10       0.000           5000.    
     99      5     10      1       10.00           6000.    
    100      5     10     10       0.000           5000.    

    100 GHB CELLS
 
 SOLVING FOR HEAD 

 OUTPUT CONTROL FOR STRESS PERIOD    2   TIME STEP    1
    SAVE HEAD FOR ALL LAYERS
    SAVE DRAWDOWN FOR ALL LAYERS
    SAVE BUDGET
    PRINT HEAD FOR ALL LAYERS
    PRINT BUDGET
 UBDSV1 SAVING "         STORAGE" ON UNIT  53 AT TIME STEP  1, STRESS PERIOD   2
 UBDSV2 SAVING "   CONSTANT HEAD" ON UNIT  53 AT TIME STEP  1, STRESS PERIOD   2
 UBDSV1 SAVING "FLOW RIGHT FACE " ON UNIT  53 AT TIME STEP  1, STRESS PERIOD   2
 UBDSV1 SAVING "FLOW FRONT FACE " ON UNIT  53 AT TIME STEP  1, STRESS PERIOD   2
 UBDSV1 SAVING "FLOW LOWER FACE " ON UNIT  53 AT TIME STEP  1, STRESS PERIOD   2
1
              HEAD IN LAYER   1 AT END OF TIME STEP   1 IN STRESS PERIOD    2
  ---------------------------------------------------------------------------

            1           2           3           4           5           6           7           8           9          10
 ........................................................................................................................
   1    10.00       10.00       10.00       10.00      10.000      10.000       9.996       9.962       9.635       1.430    
   2    10.00       10.00       10.00       10.00      10.000      10.000       9.996       9.962       9.635       1.430    
   3    10.00       10.00       10.00       10.00      10.000      10.000       9.996       9.962       9.635       1.430    
   4    10.00       10.00       10.00       10.00      10.000      10.000       9.996       9.962       9.635       1.430    
   5    10.00       10.00       10.00       10.00      10.000      10.000       9.996       9.962       9.635       1.430    
   6    10.00       10.00       10.00       10.00      10.000      10.000       9.996       9.962       9.635       1.430    
   7    10.00       10.00       10.00       10.00      10.000      10.000       9.996       9.962       9.635       1.430    
   8    10.00       10.00       10.00       10.00      10.000      10.000       9.996       9.962       9.635       1.430    
   9    10.00       10.00       10.00       10.00      10.000      10.000       9.996       9.962       9.635       1.430    
  10    10.00       10.00       10.00       10.00      10.000      10.000       9.996       9.962       9.635       1.430    
1
              HEAD IN LAYER   2 AT END OF TIME STEP   1 IN STRESS PERIOD    2
  ---------------------------------------------------------------------------

            1           2           3           4           5           6           7           8           9          10
 ........................................................................................................................
   1    10.00       10.00       10.00       10.00      10.000       9.999       9.991       9.920       9.250      0.3004    
   2    10.00       10.00       10.00       10.00      10.000       9.999       9.991       9.920       9.250      0.3004    
   3    10.00       10.00       10.00       10.00      10.000       9.999       9.991       9.920       9.250      0.3004    
   4    10.00       10.00       10.00       10.00      10.000       9.999       9.991       9.920       9.250      0.3004    
   5    10.00       10.00       10.00       10.00      10.000       9.999       9.991       9.920       9.250      0.3004    
   6    10.00       10.00       10.00       10.00      10.000       9.999       9.991       9.920       9.250      0.3004    
   7    10.00       10.00       10.00       10.00      10.000       9.999       9.991       9.920       9.250      0.3004    
   8    10.00       10.00       10.00       10.00      10.000       9.999       9.991       9.920       9.250      0.3004    
   9    10.00       10.00       10.00       10.00      10.000       9.999       9.991       9.920       9.250      0.3004    
  10    10.00       10.00       10.00       10.00      10.000       9.999       9.991       9.920       9.250      0.3004    
1
              HEAD IN LAYER   3 AT END OF TIME STEP   1 IN STRESS PERIOD    2
  ---------------------------------------------------------------------------

            1           2           3           4           5           6           7           8           9          10
 ........................................................................................................................
   1    10.00       10.00       10.00       10.00      10.000       9.999       9.987       9.886       8.968      7.7540E-02
   2    10.00       10.00       10.00       10.00      10.000       9.999       9.987       9.886       8.968      7.7540E-02
   3    10.00       10.00       10.00       10.00      10.000       9.999       9.987       9.886       8.968      7.7540E-02
   4    10.00       10.00       10.00       10.00      10.000       9.999       9.987       9.886       8.968      7.7540E-02
   5    10.00       10.00       10.00       10.00      10.000       9.999       9.987       9.886       8.968      7.7540E-02
   6    10.00       10.00       10.00       10.00      10.000       9.999       9.987       9.886       8.968      7.7540E-02
   7    10.00       10.00       10.00       10.00      10.000       9.999       9.987       9.886       8.968      7.7540E-02
   8    10.00       10.00       10.00       10.00      10.000       9.999       9.987       9.886       8.968      7.7540E-02
   9    10.00       10.00       10.00       10.00      10.000       9.999       9.987       9.886       8.968      7.7540E-02
  10    10.00       10.00       10.00       10.00      10.000       9.999       9.987       9.886       8.968      7.7540E-02
1
              HEAD IN LAYER   4 AT END OF TIME STEP   1 IN STRESS PERIOD    2
  ---------------------------------------------------------------------------

            1           2           3           4           5           6           7           8           9          10
 ........................................................................................................................
   1    10.00       10.00       10.00       10.00      10.000       9.998       9.984       9.862       8.786      4.8991E-02
   2    10.00       10.00       10.00       10.00      10.000       9.998       9.984       9.862       8.786      4.8991E-02
   3    10.00       10.00       10.00       10.00      10.000       9.998       9.984       9.862       8.786      4.8991E-02
   4    10.00       10.00       10.00       10.00      10.000       9.998       9.984       9.862       8.786      4.8991E-02
   5    10.00       10.00       10.00       10.00      10.000       9.998       9.984       9.862       8.786      4.8991E-02
   6    10.00       10.00       10.00       10.00      10.000       9.998       9.984       9.862       8.786      4.8991E-02
   7    10.00       10.00       10.00       10.00      10.000       9.998       9.984       9.862       8.786      4.8991E-02
   8    10.00       10.00       10.00       10.00      10.000       9.998       9.984       9.862       8.786      4.8991E-02
   9    10.00       10.00       10.00       10.00      10.000       9.998       9.984       9.862       8.786      4.8991E-02
  10    10.00       10.00       10.00       10.00      10.000       9.998       9.984       9.862       8.786      4.8991E-02
1
              HEAD IN LAYER   5 AT END OF TIME STEP   1 IN STRESS PERIOD    2
  ---------------------------------------------------------------------------

            1           2           3           4           5           6           7           8           9          10
 ........................................................................................................................
   1    10.00       10.00       10.00       10.00      10.000       9.998       9.983       9.849       8.697      4.5275E-02
   2    10.00       10.00       10.00       10.00      10.000       9.998       9.983       9.849       8.697      4.5275E-02
   3    10.00       10.00       10.00       10.00      10.000       9.998       9.983       9.849       8.697      4.5275E-02
   4    10.00       10.00       10.00       10.00      10.000       9.998       9.983       9.849       8.697      4.5275E-02
   5    10.00       10.00       10.00       10.00      10.000       9.998       9.983       9.849       8.697      4.5275E-02
   6    10.00       10.00       10.00       10.00      10.000       9.998       9.983       9.849       8.697      4.5275E-02
   7    10.00       10.00       10.00       10.00      10.000       9.998       9.983       9.849       8.697      4.5275E-02
   8    10.00       10.00       10.00       10.00      10.000       9.998       9.983       9.849       8.697      4.5275E-02
   9    10.00       10.00       10.00       10.00      10.000       9.998       9.983       9.849       8.697      4.5275E-02
  10    10.00       10.00       10.00       10.00      10.000       9.998       9.983       9.849       8.697      4.5275E-02

 HEAD WILL BE SAVED ON UNIT   51 AT END OF TIME STEP    1, STRESS PERIOD    2

 DRAWDOWN WILL BE SAVED ON UNIT   52 AT END OF TIME STEP    1, STRESS PERIOD    2
1
  VOLUMETRIC BUDGET FOR ENTIRE MODEL AT END OF TIME STEP    1, STRESS PERIOD   2
  ------------------------------------------------------------------------------

     CUMULATIVE VOLUMES      L**3       RATES FOR THIS TIME STEP      L**3/T
     ------------------                 ------------------------

           IN:                                      IN:
           ---                                      ---
             STORAGE =       95106.5469               STORAGE =       95106.5469
       CONSTANT HEAD =           0.0000         CONSTANT HEAD =           0.0000
               WELLS =           0.0000                 WELLS =           0.0000
     HEAD DEP BOUNDS =       1.2717E-04       HEAD DEP BOUNDS =       1.2717E-04

            TOTAL IN =       95106.5469              TOTAL IN =       95106.5469

          OUT:                                     OUT:
          ----                                     ----
             STORAGE =           0.0000               STORAGE =           0.0000
       CONSTANT HEAD =           0.0000         CONSTANT HEAD =           0.0000
               WELLS =           0.0000                 WELLS =           0.0000
     HEAD DEP BOUNDS =       95106.5469       HEAD DEP BOUNDS =       95106.5469

           TOTAL OUT =       95106.5469             TOTAL OUT =       95106.5469

            IN - OUT =           0.0000              IN - OUT =           0.0000

 PERCENT DISCREPANCY =           0.00     PERCENT DISCREPANCY =           0.00






         TIME SUMMARY AT END OF TIME STEP    1 IN STRESS PERIOD    2
                    SECONDS     MINUTES      HOURS       DAYS        YEARS
                    -----------------------------------------------------------
   TIME STEP LENGTH  86400.      1440.0      24.000      1.0000     2.73785E-03
 STRESS PERIOD TIME  86400.      1440.0      24.000      1.0000     2.73785E-03
         TOTAL TIME 1.72800E+05  2880.0      48.000      2.0000     5.47570E-03
1
 
 SOLVING FOR HEAD 

 OUTPUT CONTROL FOR STRESS PERIOD    2   TIME STEP    2
    SAVE HEAD FOR ALL LAYERS
    SAVE DRAWDOWN FOR ALL LAYERS
    SAVE BUDGET
    PRINT HEAD FOR ALL LAYERS
    PRINT BUDGET
 UBDSV1 SAVING "         STORAGE" ON UNIT  53 AT TIME STEP  2, STRESS PERIOD   2
 UBDSV2 SAVING "   CONSTANT HEAD" ON UNIT  53 AT TIME STEP  2, STRESS PERIOD   2
 UBDSV1 SAVING "FLOW RIGHT FACE " ON UNIT  53 AT TIME STEP  2, STRESS PERIOD   2
 UBDSV1 SAVING "FLOW FRONT FACE " ON UNIT  53 AT TIME STEP  2, STRESS PERIOD   2
 UBDSV1 SAVING "FLOW LOWER FACE " ON UNIT  53 AT TIME STEP  2, STRESS PERIOD   2
1
              HEAD IN LAYER   1 AT END OF TIME STEP   2 IN STRESS PERIOD    2
  ---------------------------------------------------------------------------

            1           2           3           4           5           6           7           8           9          10
 ........................................................................................................................
   1    10.00       10.00       10.00       10.00      10.000       9.999       9.988       9.908       9.277      0.2087    
   2    10.00       10.00       10.00       10.00      10.000       9.999       9.988       9.908       9.277      0.2087    
   3    10.00       10.00       10.00       10.00      10.000       9.999       9.988       9.908       9.277      0.2087    
   4    10.00       10.00       10.00       10.00      10.000       9.999       9.988       9.908       9.277      0.2087    
   5    10.00       10.00       10.00       10.00      10.000       9.999       9.988       9.908       9.277      0.2087    
   6    10.00       10.00       10.00       10.00      10.000       9.999       9.988       9.908       9.277      0.2087    
   7    10.00       10.00       10.00       10.00      10.000       9.999       9.988       9.908       9.277      0.2087    
   8    10.00       10.00       10.00       10.00      10.000       9.999       9.988       9.908       9.277      0.2087    
   9    10.00       10.00       10.00       10.00      10.000       9.999       9.988       9.908       9.277      0.2087    
  10    10.00       10.00       10.00       10.00      10.000       9.999       9.988       9.908       9.277      0.2087    
1
              HEAD IN LAYER   2 AT END OF TIME STEP   2 IN STRESS PERIOD    2
  ---------------------------------------------------------------------------

            1           2           3           4           5           6           7           8           9          10
 ........................................................................................................................
   1    10.00       10.00       10.00       10.00      10.000       9.997       9.980       9.852       8.891      5.8533E-02
   2    10.00       10.00       10.00       10.00      10.000       9.997       9.980       9.852       8.891      5.8533E-02
   3    10.00       10.00       10.00       10.00      10.000       9.997       9.980       9.852       8.891      5.8533E-02
   4    10.00       10.00       10.00       10.00      10.000       9.997       9.980       9.852       8.891      5.8533E-02
   5    10.00       10.00       10.00       10.00      10.000       9.997       9.980       9.852       8.891      5.8533E-02
   6    10.00       10.00       10.00       10.00      10.000       9.997       9.980       9.852       8.891      5.8533E-02
   7    10.00       10.00       10.00       10.00      10.000       9.997       9.980       9.852       8.891      5.8533E-02
   8    10.00       10.00       10.00       10.00      10.000       9.997       9.980       9.852       8.891      5.8533E-02
   9    10.00       10.00       10.00       10.00      10.000       9.997       9.980       9.852       8.891      5.8533E-02
  10    10.00       10.00       10.00       10.00      10.000       9.997       9.980       9.852       8.891      5.8533E-02
1
              HEAD IN LAYER   3 AT END OF TIME STEP   2 IN STRESS PERIOD    2
  ---------------------------------------------------------------------------

            1           2           3           4           5           6           7           8           9          10
 ........................................................................................................................
   1    10.00       10.00       10.00      10.000      10.000       9.997       9.974       9.806       8.601      2.5452E-02
   2    10.00       10.00       10.00      10.000      10.000       9.997       9.974       9.806       8.601      2.5452E-02
   3    10.00       10.00       10.00      10.000      10.000       9.997       9.974       9.806       8.601      2.5452E-02
   4    10.00       10.00       10.00      10.000      10.000       9.997       9.974       9.806       8.601      2.5452E-02
   5    10.00       10.00       10.00      10.000      10.000       9.997       9.974       9.806       8.601      2.5452E-02
   6    10.00       10.00       10.00      10.000      10.000       9.997       9.974       9.806       8.601      2.5452E-02
   7    10.00       10.00       10.00      10.000      10.000       9.997       9.974       9.806       8.601      2.5452E-02
   8    10.00       10.00       10.00      10.000      10.000       9.997       9.974       9.806       8.601      2.5452E-02
   9    10.00       10.00       10.00      10.000      10.000       9.997       9.974       9.806       8.601      2.5452E-02
  10    10.00       10.00       10.00      10.000      10.000       9.997       9.974       9.806       8.601      2.5452E-02
1
              HEAD IN LAYER   4 AT END OF TIME STEP   2 IN STRESS PERIOD    2
  ---------------------------------------------------------------------------

            1           2           3           4           5           6           7           8           9          10
 ........................................................................................................................
   1    10.00       10.00       10.00      10.000       9.999       9.996       9.969       9.774       8.412      2.0848E-02
   2    10.00       10.00       10.00      10.000       9.999       9.996       9.969       9.774       8.412      2.0848E-02
   3    10.00       10.00       10.00      10.000       9.999       9.996       9.969       9.774       8.412      2.0848E-02
   4    10.00       10.00       10.00      10.000       9.999       9.996       9.969       9.774       8.412      2.0848E-02
   5    10.00       10.00       10.00      10.000       9.999       9.996       9.969       9.774       8.412      2.0848E-02
   6    10.00       10.00       10.00      10.000       9.999       9.996       9.969       9.774       8.412      2.0848E-02
   7    10.00       10.00       10.00      10.000       9.999       9.996       9.969       9.774       8.412      2.0848E-02
   8    10.00       10.00       10.00      10.000       9.999       9.996       9.969       9.774       8.412      2.0848E-02
   9    10.00       10.00       10.00      10.000       9.999       9.996       9.969       9.774       8.412      2.0848E-02
  10    10.00       10.00       10.00      10.000       9.999       9.996       9.969       9.774       8.412      2.0848E-02
1
              HEAD IN LAYER   5 AT END OF TIME STEP   2 IN STRESS PERIOD    2
  ---------------------------------------------------------------------------

            1           2           3           4           5           6           7           8           9          10
 ........................................................................................................................
   1    10.00       10.00       10.00      10.000       9.999       9.996       9.967       9.758       8.318      2.0101E-02
   2    10.00       10.00       10.00      10.000       9.999       9.996       9.967       9.758       8.318      2.0101E-02
   3    10.00       10.00       10.00      10.000       9.999       9.996       9.967       9.758       8.318      2.0101E-02
   4    10.00       10.00       10.00      10.000       9.999       9.996       9.967       9.758       8.318      2.0101E-02
   5    10.00       10.00       10.00      10.000       9.999       9.996       9.967       9.758       8.318      2.0101E-02
   6    10.00       10.00       10.00      10.000       9.999       9.996       9.967       9.758       8.318      2.0101E-02
   7    10.00       10.00       10.00      10.000       9.999       9.996       9.967       9.758       8.318      2.0101E-02
   8    10.00       10.00       10.00      10.000       9.999       9.996       9.967       9.758       8.318      2.0101E-02
   9    10.00       10.00       10.00      10.000       9.999       9.996       9.967       9.758       8.318      2.0101E-02
  10    10.00       10.00       10.00      10.000       9.999       9.996       9.967       9.758       8.318      2.0101E-02

 HEAD WILL BE SAVED ON UNIT   51 AT END OF TIME STEP    2, STRESS PERIOD    2

 DRAWDOWN WILL BE SAVED ON UNIT   52 AT END OF TIME STEP    2, STRESS PERIOD    2
1
  VOLUMETRIC BUDGET FOR ENTIRE MODEL AT END OF TIME STEP    2, STRESS PERIOD   2
  ------------------------------------------------------------------------------

     CUMULATIVE VOLUMES      L**3       RATES FOR THIS TIME STEP      L**3/T
     ------------------                 ------------------------

           IN:                                      IN:
           ---                                      ---
             STORAGE =      111787.1094               STORAGE =       16680.5664
       CONSTANT HEAD =           0.0000         CONSTANT HEAD =           0.0000
               WELLS =           0.0000                 WELLS =           0.0000
     HEAD DEP BOUNDS =       5.6869E-04       HEAD DEP BOUNDS =       4.4152E-04

            TOTAL IN =      111787.1094              TOTAL IN =       16680.5664

          OUT:                                     OUT:
          ----                                     ----
             STORAGE =           0.0000               STORAGE =           0.0000
       CONSTANT HEAD =           0.0000         CONSTANT HEAD =           0.0000
               WELLS =           0.0000                 WELLS =           0.0000
     HEAD DEP BOUNDS =      111787.1250       HEAD DEP BOUNDS =       16680.5742

           TOTAL OUT =      111787.1250             TOTAL OUT =       16680.5742

            IN - OUT =      -1.5625E-02              IN - OUT =      -7.8125E-03

 PERCENT DISCREPANCY =          -0.00     PERCENT DISCREPANCY =          -0.00






         TIME SUMMARY AT END OF TIME STEP    2 IN STRESS PERIOD    2
                    SECONDS     MINUTES      HOURS       DAYS        YEARS
                    -----------------------------------------------------------
   TIME STEP LENGTH  86400.      1440.0      24.000      1.0000     2.73785E-03
 STRESS PERIOD TIME 1.72800E+05  2880.0      48.000      2.0000     5.47570E-03
         TOTAL TIME 2.59200E+05  4320.0      72.000      3.0000     8.21355E-03
1
 
 SOLVING FOR HEAD 

 OUTPUT CONTROL FOR STRESS PERIOD    2   TIME STEP    3
    SAVE HEAD FOR ALL LAYERS
    SAVE DRAWDOWN FOR ALL LAYERS
    SAVE BUDGET
    PRINT HEAD FOR ALL LAYERS
    PRINT BUDGET
 UBDSV1 SAVING "         STORAGE" ON UNIT  53 AT TIME STEP  3, STRESS PERIOD   2
 UBDSV2 SAVING "   CONSTANT HEAD" ON UNIT  53 AT TIME STEP  3, STRESS PERIOD   2
 UBDSV1 SAVING "FLOW RIGHT FACE " ON UNIT  53 AT TIME STEP  3, STRESS PERIOD   2
 UBDSV1 SAVING "FLOW FRONT FACE " ON UNIT  53 AT TIME STEP  3, STRESS PERIOD   2
 UBDSV1 SAVING "FLOW LOWER FACE " ON UNIT  53 AT TIME STEP  3, STRESS PERIOD   2
1
              HEAD IN LAYER   1 AT END OF TIME STEP   3 IN STRESS PERIOD    2
  ---------------------------------------------------------------------------

            1           2           3           4           5           6           7           8           9          10
 ........................................................................................................................
   1    10.00       10.00       10.00      10.000      10.000       9.997       9.978       9.845       8.944      3.6787E-02
   2    10.00       10.00       10.00      10.000      10.000       9.997       9.978       9.845       8.944      3.6787E-02
   3    10.00       10.00       10.00      10.000      10.000       9.997       9.978       9.845       8.944      3.6787E-02
   4    10.00       10.00       10.00      10.000      10.000       9.997       9.978       9.845       8.944      3.6787E-02
   5    10.00       10.00       10.00      10.000      10.000       9.997       9.978       9.845       8.944      3.6787E-02
   6    10.00       10.00       10.00      10.000      10.000       9.997       9.978       9.845       8.944      3.6787E-02
   7    10.00       10.00       10.00      10.000      10.000       9.997       9.978       9.845       8.944      3.6787E-02
   8    10.00       10.00       10.00      10.000      10.000       9.997       9.978       9.845       8.944      3.6787E-02
   9    10.00       10.00       10.00      10.000      10.000       9.997       9.978       9.845       8.944      3.6787E-02
  10    10.00       10.00       10.00      10.000      10.000       9.997       9.978       9.845       8.944      3.6787E-02
1
              HEAD IN LAYER   2 AT END OF TIME STEP   3 IN STRESS PERIOD    2
  ---------------------------------------------------------------------------

            1           2           3           4           5           6           7           8           9          10
 ........................................................................................................................
   1    10.00       10.00       10.00      10.000       9.999       9.995       9.967       9.780       8.585      2.3771E-02
   2    10.00       10.00       10.00      10.000       9.999       9.995       9.967       9.780       8.585      2.3771E-02
   3    10.00       10.00       10.00      10.000       9.999       9.995       9.967       9.780       8.585      2.3771E-02
   4    10.00       10.00       10.00      10.000       9.999       9.995       9.967       9.780       8.585      2.3771E-02
   5    10.00       10.00       10.00      10.000       9.999       9.995       9.967       9.780       8.585      2.3771E-02
   6    10.00       10.00       10.00      10.000       9.999       9.995       9.967       9.780       8.585      2.3771E-02
   7    10.00       10.00       10.00      10.000       9.999       9.995       9.967       9.780       8.585      2.3771E-02
   8    10.00       10.00       10.00      10.000       9.999       9.995       9.967       9.780       8.585      2.3771E-02
   9    10.00       10.00       10.00      10.000       9.999       9.995       9.967       9.780       8.585      2.3771E-02
  10    10.00       10.00       10.00      10.000       9.999       9.995       9.967       9.780       8.585      2.3771E-02
1
              HEAD IN LAYER   3 AT END OF TIME STEP   3 IN STRESS PERIOD    2
  ---------------------------------------------------------------------------

            1           2           3           4           5           6           7           8           9          10
 ........................................................................................................................
   1    10.00       10.00       10.00      10.000       9.999       9.994       9.959       9.728       8.312      2.0351E-02
   2    10.00       10.00       10.00      10.000       9.999       9.994       9.959       9.728       8.312      2.0351E-02
   3    10.00       10.00       10.00      10.000       9.999       9.994       9.959       9.728       8.312      2.0351E-02
   4    10.00       10.00       10.00      10.000       9.999       9.994       9.959       9.728       8.312      2.0351E-02
   5    10.00       10.00       10.00      10.000       9.999       9.994       9.959       9.728       8.312      2.0351E-02
   6    10.00       10.00       10.00      10.000       9.999       9.994       9.959       9.728       8.312      2.0351E-02
   7    10.00       10.00       10.00      10.000       9.999       9.994       9.959       9.728       8.312      2.0351E-02
   8    10.00       10.00       10.00      10.000       9.999       9.994       9.959       9.728       8.312      2.0351E-02
   9    10.00       10.00       10.00      10.000       9.999       9.994       9.959       9.728       8.312      2.0351E-02
  10    10.00       10.00       10.00      10.000       9.999       9.994       9.959       9.728       8.312      2.0351E-02
1
              HEAD IN LAYER   4 AT END OF TIME STEP   3 IN STRESS PERIOD    2
  ---------------------------------------------------------------------------

            1           2           3           4           5           6           7           8           9          10
 ........................................................................................................................
   1    10.00       10.00       10.00      10.000       9.999       9.993       9.953       9.693       8.133      1.9565E-02
   2    10.00       10.00       10.00      10.000       9.999       9.993       9.953       9.693       8.133      1.9565E-02
   3    10.00       10.00       10.00      10.000       9.999       9.993       9.953       9.693       8.133      1.9565E-02
   4    10.00       10.00       10.00      10.000       9.999       9.993       9.953       9.693       8.133      1.9565E-02
   5    10.00       10.00       10.00      10.000       9.999       9.993       9.953       9.693       8.133      1.9565E-02
   6    10.00       10.00       10.00      10.000       9.999       9.993       9.953       9.693       8.133      1.9565E-02
   7    10.00       10.00       10.00      10.000       9.999       9.993       9.953       9.693       8.133      1.9565E-02
   8    10.00       10.00       10.00      10.000       9.999       9.993       9.953       9.693       8.133      1.9565E-02
   9    10.00       10.00       10.00      10.000       9.999       9.993       9.953       9.693       8.133      1.9565E-02
  10    10.00       10.00       10.00      10.000       9.999       9.993       9.953       9.693       8.133      1.9565E-02
1
              HEAD IN LAYER   5 AT END OF TIME STEP   3 IN STRESS PERIOD    2
  ---------------------------------------------------------------------------

            1           2           3           4           5           6           7           8           9          10
 ........................................................................................................................
   1    10.00       10.00       10.00      10.000       9.999       9.993       9.950       9.674       8.045      1.9307E-02
   2    10.00       10.00       10.00      10.000       9.999       9.993       9.950       9.674       8.045      1.9307E-02
   3    10.00       10.00       10.00      10.000       9.999       9.993       9.950       9.674       8.045      1.9307E-02
   4    10.00       10.00       10.00      10.000       9.999       9.993       9.950       9.674       8.045      1.9307E-02
   5    10.00       10.00       10.00      10.000       9.999       9.993       9.950       9.674       8.045      1.9307E-02
   6    10.00       10.00       10.00      10.000       9.999       9.993       9.950       9.674       8.045      1.9307E-02
   7    10.00       10.00       10.00      10.000       9.999       9.993       9.950       9.674       8.045      1.9307E-02
   8    10.00       10.00       10.00      10.000       9.999       9.993       9.950       9.674       8.045      1.9307E-02
   9    10.00       10.00       10.00      10.000       9.999       9.993       9.950       9.674       8.045      1.9307E-02
  10    10.00       10.00       10.00      10.000       9.999       9.993       9.950       9.674       8.045      1.9307E-02

 HEAD WILL BE SAVED ON UNIT   51 AT END OF TIME STEP    3, STRESS PERIOD    2

 DRAWDOWN WILL BE SAVED ON UNIT   52 AT END OF TIME STEP    3, STRESS PERIOD    2
1
  VOLUMETRIC BUDGET FOR ENTIRE MODEL AT END OF TIME STEP    3, STRESS PERIOD   2
  ------------------------------------------------------------------------------

     CUMULATIVE VOLUMES      L**3       RATES FOR THIS TIME STEP      L**3/T
     ------------------                 ------------------------

           IN:                                      IN:
           ---                                      ---
             STORAGE =      117776.1562               STORAGE =        5989.0508
       CONSTANT HEAD =           0.0000         CONSTANT HEAD =           0.0000
               WELLS =           0.0000                 WELLS =           0.0000
     HEAD DEP BOUNDS =       1.5365E-03       HEAD DEP BOUNDS =       9.6777E-04

            TOTAL IN =      117776.1562              TOTAL IN =        5989.0518

          OUT:                                     OUT:
          ----                                     ----
             STORAGE =           0.0000               STORAGE =           0.0000
       CONSTANT HEAD =           0.0000         CONSTANT HEAD =           0.0000
               WELLS =           0.0000                 WELLS =           0.0000
     HEAD DEP BOUNDS =      117776.1719       HEAD DEP BOUNDS =        5989.0498

           TOTAL OUT =      117776.1719             TOTAL OUT =        5989.0498

            IN - OUT =      -1.5625E-02              IN - OUT =       1.9531E-03

 PERCENT DISCREPANCY =          -0.00     PERCENT DISCREPANCY =           0.00






         TIME SUMMARY AT END OF TIME STEP    3 IN STRESS PERIOD    2
                    SECONDS     MINUTES      HOURS       DAYS        YEARS
                    -----------------------------------------------------------
   TIME STEP LENGTH  86400.      1440.0      24.000      1.0000     2.73785E-03
 STRESS PERIOD TIME 2.59200E+05  4320.0      72.000      3.0000     8.21355E-03
         TOTAL TIME 3.45600E+05  5760.0      96.000      4.0000     1.09514E-02
1
 
 SOLVING FOR HEAD 

 OUTPUT CONTROL FOR STRESS PERIOD    2   TIME STEP    4
    SAVE HEAD FOR ALL LAYERS
    SAVE DRAWDOWN FOR ALL LAYERS
    SAVE BUDGET
    PRINT HEAD FOR ALL LAYERS
    PRINT BUDGET
 UBDSV1 SAVING "         STORAGE" ON UNIT  53 AT TIME STEP  4, STRESS PERIOD   2
 UBDSV2 SAVING "   CONSTANT HEAD" ON UNIT  53 AT TIME STEP  4, STRESS PERIOD   2
 UBDSV1 SAVING "FLOW RIGHT FACE " ON UNIT  53 AT TIME STEP  4, STRESS PERIOD   2
 UBDSV1 SAVING "FLOW FRONT FACE " ON UNIT  53 AT TIME STEP  4, STRESS PERIOD   2
 UBDSV1 SAVING "FLOW LOWER FACE " ON UNIT  53 AT TIME STEP  4, STRESS PERIOD   2
1
              HEAD IN LAYER   1 AT END OF TIME STEP   4 IN STRESS PERIOD    2
  ---------------------------------------------------------------------------

            1           2           3           4           5           6           7           8           9          10
 ........................................................................................................................
   1    10.00       10.00       10.00      10.000       9.999       9.995       9.965       9.775       8.635      1.2405E-02
   2    10.00       10.00       10.00      10.000       9.999       9.995       9.965       9.775       8.635      1.2405E-02
   3    10.00       10.00       10.00      10.000       9.999       9.995       9.965       9.775       8.635      1.2405E-02
   4    10.00       10.00       10.00      10.000       9.999       9.995       9.965       9.775       8.635      1.2405E-02
   5    10.00       10.00       10.00      10.000       9.999       9.995       9.965       9.775       8.635      1.2405E-02
   6    10.00       10.00       10.00      10.000       9.999       9.995       9.965       9.775       8.635      1.2405E-02
   7    10.00       10.00       10.00      10.000       9.999       9.995       9.965       9.775       8.635      1.2405E-02
   8    10.00       10.00       10.00      10.000       9.999       9.995       9.965       9.775       8.635      1.2405E-02
   9    10.00       10.00       10.00      10.000       9.999       9.995       9.965       9.775       8.635      1.2405E-02
  10    10.00       10.00       10.00      10.000       9.999       9.995       9.965       9.775       8.635      1.2405E-02
1
              HEAD IN LAYER   2 AT END OF TIME STEP   4 IN STRESS PERIOD    2
  ---------------------------------------------------------------------------

            1           2           3           4           5           6           7           8           9          10
 ........................................................................................................................
   1    10.00       10.00       10.00      10.000       9.999       9.992       9.952       9.704       8.304      1.8334E-02
   2    10.00       10.00       10.00      10.000       9.999       9.992       9.952       9.704       8.304      1.8334E-02
   3    10.00       10.00       10.00      10.000       9.999       9.992       9.952       9.704       8.304      1.8334E-02
   4    10.00       10.00       10.00      10.000       9.999       9.992       9.952       9.704       8.304      1.8334E-02
   5    10.00       10.00       10.00      10.000       9.999       9.992       9.952       9.704       8.304      1.8334E-02
   6    10.00       10.00       10.00      10.000       9.999       9.992       9.952       9.704       8.304      1.8334E-02
   7    10.00       10.00       10.00      10.000       9.999       9.992       9.952       9.704       8.304      1.8334E-02
   8    10.00       10.00       10.00      10.000       9.999       9.992       9.952       9.704       8.304      1.8334E-02
   9    10.00       10.00       10.00      10.000       9.999       9.992       9.952       9.704       8.304      1.8334E-02
  10    10.00       10.00       10.00      10.000       9.999       9.992       9.952       9.704       8.304      1.8334E-02
1
              HEAD IN LAYER   3 AT END OF TIME STEP   4 IN STRESS PERIOD    2
  ---------------------------------------------------------------------------

            1           2           3           4           5           6           7           8           9          10
 ........................................................................................................................
   1    10.00       10.00       10.00      10.000       9.999       9.991       9.941       9.647       8.048      1.9105E-02
   2    10.00       10.00       10.00      10.000       9.999       9.991       9.941       9.647       8.048      1.9105E-02
   3    10.00       10.00       10.00      10.000       9.999       9.991       9.941       9.647       8.048      1.9105E-02
   4    10.00       10.00       10.00      10.000       9.999       9.991       9.941       9.647       8.048      1.9105E-02
   5    10.00       10.00       10.00      10.000       9.999       9.991       9.941       9.647       8.048      1.9105E-02
   6    10.00       10.00       10.00      10.000       9.999       9.991       9.941       9.647       8.048      1.9105E-02
   7    10.00       10.00       10.00      10.000       9.999       9.991       9.941       9.647       8.048      1.9105E-02
   8    10.00       10.00       10.00      10.000       9.999       9.991       9.941       9.647       8.048      1.9105E-02
   9    10.00       10.00       10.00      10.000       9.999       9.991       9.941       9.647       8.048      1.9105E-02
  10    10.00       10.00       10.00      10.000       9.999       9.991       9.941       9.647       8.048      1.9105E-02
1
              HEAD IN LAYER   4 AT END OF TIME STEP   4 IN STRESS PERIOD    2
  ---------------------------------------------------------------------------

            1           2           3           4           5           6           7           8           9          10
 ........................................................................................................................
   1    10.00       10.00       10.00      10.000       9.998       9.989       9.934       9.609       7.880      1.8878E-02
   2    10.00       10.00       10.00      10.000       9.998       9.989       9.934       9.609       7.880      1.8878E-02
   3    10.00       10.00       10.00      10.000       9.998       9.989       9.934       9.609       7.880      1.8878E-02
   4    10.00       10.00       10.00      10.000       9.998       9.989       9.934       9.609       7.880      1.8878E-02
   5    10.00       10.00       10.00      10.000       9.998       9.989       9.934       9.609       7.880      1.8878E-02
   6    10.00       10.00       10.00      10.000       9.998       9.989       9.934       9.609       7.880      1.8878E-02
   7    10.00       10.00       10.00      10.000       9.998       9.989       9.934       9.609       7.880      1.8878E-02
   8    10.00       10.00       10.00      10.000       9.998       9.989       9.934       9.609       7.880      1.8878E-02
   9    10.00       10.00       10.00      10.000       9.998       9.989       9.934       9.609       7.880      1.8878E-02
  10    10.00       10.00       10.00      10.000       9.998       9.989       9.934       9.609       7.880      1.8878E-02
1
              HEAD IN LAYER   5 AT END OF TIME STEP   4 IN STRESS PERIOD    2
  ---------------------------------------------------------------------------

            1           2           3           4           5           6           7           8           9          10
 ........................................................................................................................
   1    10.00       10.00       10.00      10.000       9.998       9.989       9.930       9.589       7.798      1.8700E-02
   2    10.00       10.00       10.00      10.000       9.998       9.989       9.930       9.589       7.798      1.8700E-02
   3    10.00       10.00       10.00      10.000       9.998       9.989       9.930       9.589       7.798      1.8700E-02
   4    10.00       10.00       10.00      10.000       9.998       9.989       9.930       9.589       7.798      1.8700E-02
   5    10.00       10.00       10.00      10.000       9.998       9.989       9.930       9.589       7.798      1.8700E-02
   6    10.00       10.00       10.00      10.000       9.998       9.989       9.930       9.589       7.798      1.8700E-02
   7    10.00       10.00       10.00      10.000       9.998       9.989       9.930       9.589       7.798      1.8700E-02
   8    10.00       10.00       10.00      10.000       9.998       9.989       9.930       9.589       7.798      1.8700E-02
   9    10.00       10.00       10.00      10.000       9.998       9.989       9.930       9.589       7.798      1.8700E-02
  10    10.00       10.00       10.00      10.000       9.998       9.989       9.930       9.589       7.798      1.8700E-02

 HEAD WILL BE SAVED ON UNIT   51 AT END OF TIME STEP    4, STRESS PERIOD    2

 DRAWDOWN WILL BE SAVED ON UNIT   52 AT END OF TIME STEP    4, STRESS PERIOD    2
1
  VOLUMETRIC BUDGET FOR ENTIRE MODEL AT END OF TIME STEP    4, STRESS PERIOD   2
  ------------------------------------------------------------------------------

     CUMULATIVE VOLUMES      L**3       RATES FOR THIS TIME STEP      L**3/T
     ------------------                 ------------------------

           IN:                                      IN:
           ---                                      ---
             STORAGE =      122147.2891               STORAGE =        4371.1357
       CONSTANT HEAD =           0.0000         CONSTANT HEAD =           0.0000
               WELLS =           0.0000                 WELLS =           0.0000
     HEAD DEP BOUNDS =       3.8230E-03       HEAD DEP BOUNDS =       2.2865E-03

            TOTAL IN =      122147.2891              TOTAL IN =        4371.1382

          OUT:                                     OUT:
          ----                                     ----
             STORAGE =           0.0000               STORAGE =           0.0000
       CONSTANT HEAD =           0.0000         CONSTANT HEAD =           0.0000
               WELLS =           0.0000                 WELLS =           0.0000
     HEAD DEP BOUNDS =      122147.2969       HEAD DEP BOUNDS =        4371.1240

           TOTAL OUT =      122147.2969             TOTAL OUT =        4371.1240

            IN - OUT =      -7.8125E-03              IN - OUT =       1.4160E-02

 PERCENT DISCREPANCY =          -0.00     PERCENT DISCREPANCY =           0.00






         TIME SUMMARY AT END OF TIME STEP    4 IN STRESS PERIOD    2
                    SECONDS     MINUTES      HOURS       DAYS        YEARS
                    -----------------------------------------------------------
   TIME STEP LENGTH  86400.      1440.0      24.000      1.0000     2.73785E-03
 STRESS PERIOD TIME 3.45600E+05  5760.0      96.000      4.0000     1.09514E-02
         TOTAL TIME 4.32000E+05  7200.0      120.00      5.0000     1.36893E-02
1
 
 SOLVING FOR HEAD 

 OUTPUT CONTROL FOR STRESS PERIOD    2   TIME STEP    5
    SAVE HEAD FOR ALL LAYERS
    SAVE DRAWDOWN FOR ALL LAYERS
    SAVE BUDGET
    PRINT HEAD FOR ALL LAYERS
    PRINT BUDGET
 UBDSV1 SAVING "         STORAGE" ON UNIT  53 AT TIME STEP  5, STRESS PERIOD   2
 UBDSV2 SAVING "   CONSTANT HEAD" ON UNIT  53 AT TIME STEP  5, STRESS PERIOD   2
 UBDSV1 SAVING "FLOW RIGHT FACE " ON UNIT  53 AT TIME STEP  5, STRESS PERIOD   2
 UBDSV1 SAVING "FLOW FRONT FACE " ON UNIT  53 AT TIME STEP  5, STRESS PERIOD   2
 UBDSV1 SAVING "FLOW LOWER FACE " ON UNIT  53 AT TIME STEP  5, STRESS PERIOD   2
1
              HEAD IN LAYER   1 AT END OF TIME STEP   5 IN STRESS PERIOD    2
  ---------------------------------------------------------------------------

            1           2           3           4           5           6           7           8           9          10
 ........................................................................................................................
   1    10.00       10.00       10.00      10.000       9.999       9.992       9.949       9.699       8.348      8.7332E-03
   2    10.00       10.00       10.00      10.000       9.999       9.992       9.949       9.699       8.348      8.7332E-03
   3    10.00       10.00       10.00      10.000       9.999       9.992       9.949       9.699       8.348      8.7332E-03
   4    10.00       10.00       10.00      10.000       9.999       9.992       9.949       9.699       8.348      8.7332E-03
   5    10.00       10.00       10.00      10.000       9.999       9.992       9.949       9.699       8.348      8.7332E-03
   6    10.00       10.00       10.00      10.000       9.999       9.992       9.949       9.699       8.348      8.7332E-03
   7    10.00       10.00       10.00      10.000       9.999       9.992       9.949       9.699       8.348      8.7332E-03
   8    10.00       10.00       10.00      10.000       9.999       9.992       9.949       9.699       8.348      8.7332E-03
   9    10.00       10.00       10.00      10.000       9.999       9.992       9.949       9.699       8.348      8.7332E-03
[...]
1
              HEAD IN LAYER   2 AT END OF TIME STEP  99 IN STRESS PERIOD    3
  ---------------------------------------------------------------------------

            1           2           3           4           5           6           7           8           9          10
 ........................................................................................................................
   1    9.999       9.388       8.720       7.954       7.072       6.058       4.861       3.444       1.810      3.7841E-03
   2    9.999       9.352       8.640       7.825       6.908       5.923       4.773       3.395       1.789      3.7396E-03
   3    9.999       9.285       8.482       7.538       6.505       5.623       4.597       3.305       1.752      3.6608E-03
   4    9.998       9.205       8.267       7.060       5.610       5.125       4.360       3.199       1.711      3.5758E-03
   5    9.998       9.159       8.108       6.501       3.011       4.535       4.185       3.140       1.692      3.5347E-03
   6    9.998       9.208       8.272       7.067       5.618       5.132       4.365       3.203       1.713      3.5800E-03
   7    9.999       9.292       8.495       7.555       6.525       5.642       4.612       3.315       1.757      3.6715E-03
   8    9.999       9.367       8.669       7.864       6.952       5.963       4.805       3.417       1.800      3.7620E-03
   9    9.999       9.417       8.776       8.034       7.162       6.141       4.925       3.486       1.831      3.8271E-03
  10    9.999       9.441       8.826       8.108       7.250       6.219       4.981       3.520       1.846      3.8598E-03
1
              HEAD IN LAYER   3 AT END OF TIME STEP  99 IN STRESS PERIOD    3
  ---------------------------------------------------------------------------

            1           2           3           4           5           6           7           8           9          10
 ........................................................................................................................
   1    9.999       9.384       8.712       7.944       7.060       6.045       4.848       3.433       1.803      4.2468E-03
   2    9.999       9.348       8.633       7.814       6.896       5.909       4.760       3.384       1.781      4.1968E-03
   3    9.999       9.281       8.474       7.526       6.492       5.609       4.583       3.294       1.744      4.1084E-03
   4    9.998       9.201       8.258       7.047       5.601       5.111       4.346       3.188       1.703      4.0131E-03
   5    9.998       9.154       8.099       6.492       3.360       4.528       4.172       3.129       1.684      3.9671E-03
   6    9.998       9.203       8.264       7.054       5.609       5.118       4.352       3.192       1.705      4.0179E-03
   7    9.999       9.288       8.487       7.544       6.512       5.628       4.599       3.304       1.749      4.1206E-03
   8    9.999       9.363       8.662       7.854       6.940       5.951       4.793       3.406       1.792      4.2224E-03
   9    9.999       9.413       8.770       8.025       7.151       6.129       4.914       3.476       1.823      4.2957E-03
  10    9.999       9.438       8.820       8.099       7.239       6.207       4.970       3.510       1.839      4.3325E-03
1
              HEAD IN LAYER   4 AT END OF TIME STEP  99 IN STRESS PERIOD    3
  ---------------------------------------------------------------------------

            1           2           3           4           5           6           7           8           9          10
 ........................................................................................................................
   1    9.999       9.382       8.708       7.938       7.052       6.036       4.840       3.426       1.797      4.2955E-03
   2    9.999       9.346       8.628       7.807       6.887       5.900       4.751       3.377       1.776      4.2447E-03
   3    9.999       9.278       8.468       7.519       6.483       5.600       4.574       3.286       1.739      4.1549E-03
   4    9.998       9.198       8.253       7.039       5.598       5.101       4.337       3.180       1.698      4.0583E-03
   5    9.998       9.151       8.093       6.488       3.581       4.526       4.163       3.121       1.678      4.0116E-03
   6    9.998       9.200       8.258       7.046       5.606       5.109       4.343       3.184       1.700      4.0632E-03
   7    9.999       9.285       8.482       7.537       6.503       5.619       4.590       3.297       1.744      4.1675E-03
   8    9.999       9.361       8.657       7.847       6.932       5.942       4.784       3.399       1.787      4.2709E-03
   9    9.999       9.411       8.766       8.019       7.144       6.121       4.906       3.469       1.818      4.3454E-03
  10    9.999       9.435       8.816       8.094       7.232       6.199       4.962       3.503       1.834      4.3829E-03
1
              HEAD IN LAYER   5 AT END OF TIME STEP  99 IN STRESS PERIOD    3
  ---------------------------------------------------------------------------

            1           2           3           4           5           6           7           8           9          10
 ........................................................................................................................
   1    9.999       9.380       8.705       7.934       7.048       6.032       4.836       3.422       1.795      4.2969E-03
   2    9.999       9.344       8.625       7.804       6.883       5.896       4.747       3.373       1.774      4.2460E-03
   3    9.999       9.277       8.466       7.515       6.478       5.595       4.570       3.282       1.736      4.1560E-03
   4    9.998       9.196       8.250       7.035       5.597       5.097       4.333       3.176       1.695      4.0592E-03
   5    9.998       9.149       8.090       6.487       3.689       4.525       4.158       3.117       1.676      4.0125E-03
   6    9.998       9.199       8.255       7.042       5.605       5.104       4.339       3.180       1.697      4.0642E-03
   7    9.999       9.284       8.479       7.533       6.499       5.615       4.586       3.293       1.741      4.1687E-03
   8    9.999       9.360       8.655       7.844       6.928       5.938       4.780       3.395       1.785      4.2724E-03
   9    9.999       9.410       8.763       8.016       7.140       6.117       4.902       3.465       1.816      4.3472E-03
  10    9.999       9.434       8.814       8.091       7.229       6.195       4.958       3.500       1.832      4.3848E-03

 HEAD WILL BE SAVED ON UNIT   51 AT END OF TIME STEP   99, STRESS PERIOD    3

 DRAWDOWN WILL BE SAVED ON UNIT   52 AT END OF TIME STEP   99, STRESS PERIOD    3
1
  VOLUMETRIC BUDGET FOR ENTIRE MODEL AT END OF TIME STEP   99, STRESS PERIOD   3
  ------------------------------------------------------------------------------

     CUMULATIVE VOLUMES      L**3       RATES FOR THIS TIME STEP      L**3/T
     ------------------                 ------------------------

           IN:                                      IN:
           ---                                      ---
             STORAGE =      449677.9688               STORAGE =         978.4968
       CONSTANT HEAD =           0.0000         CONSTANT HEAD =           0.0000
               WELLS =           0.0000                 WELLS =           0.0000
     HEAD DEP BOUNDS =       26871.9688       HEAD DEP BOUNDS =         411.3779

            TOTAL IN =      476549.9375              TOTAL IN =        1389.8748

          OUT:                                     OUT:
          ----                                     ----
             STORAGE =           0.0000               STORAGE =           0.0000
       CONSTANT HEAD =           0.0000         CONSTANT HEAD =           0.0000
               WELLS =       49500.0000                 WELLS =         500.0000
     HEAD DEP BOUNDS =      427050.8125       HEAD DEP BOUNDS =         889.8837

           TOTAL OUT =      476550.8125             TOTAL OUT =        1389.8838

            IN - OUT =          -0.8750              IN - OUT =      -9.0332E-03

 PERCENT DISCREPANCY =          -0.00     PERCENT DISCREPANCY =          -0.00






         TIME SUMMARY AT END OF TIME STEP   99 IN STRESS PERIOD    3
                    SECONDS     MINUTES      HOURS       DAYS        YEARS
                    -----------------------------------------------------------
   TIME STEP LENGTH  86400.      1440.0      24.000      1.0000     2.73785E-03
 STRESS PERIOD TIME 8.55360E+06 1.42560E+05  2376.0      99.000     0.27105    
         TOTAL TIME 1.72800E+07 2.88000E+05  4800.0      200.00     0.54757    
1
 
 SOLVING FOR HEAD 

 OUTPUT CONTROL FOR STRESS PERIOD    3   TIME STEP  100
    SAVE HEAD FOR ALL LAYERS
    SAVE DRAWDOWN FOR ALL LAYERS
    SAVE BUDGET
    PRINT HEAD FOR ALL LAYERS
    PRINT BUDGET
 UBDSV1 SAVING "         STORAGE" ON UNIT  53 AT TIME STEP100, STRESS PERIOD   3
 UBDSV2 SAVING "   CONSTANT HEAD" ON UNIT  53 AT TIME STEP100, STRESS PERIOD   3
 UBDSV1 SAVING "FLOW RIGHT FACE " ON UNIT  53 AT TIME STEP100, STRESS PERIOD   3
 UBDSV1 SAVING "FLOW FRONT FACE " ON UNIT  53 AT TIME STEP100, STRESS PERIOD   3
 UBDSV1 SAVING "FLOW LOWER FACE " ON UNIT  53 AT TIME STEP100, STRESS PERIOD   3
1
              HEAD IN LAYER   1 AT END OF TIME STEP 100 IN STRESS PERIOD    3
  ---------------------------------------------------------------------------

            1           2           3           4           5           6           7           8           9          10
 ........................................................................................................................
   1    9.999       9.388       8.719       7.954       7.071       6.057       4.860       3.444       1.811      1.5776E-03
   2    9.999       9.353       8.640       7.824       6.907       5.921       4.772       3.395       1.790      1.5577E-03
   3    9.999       9.286       8.482       7.537       6.504       5.622       4.595       3.304       1.752      1.5222E-03
   4    9.998       9.205       8.267       7.060       5.609       5.122       4.357       3.198       1.712      1.4841E-03
   5    9.998       9.159       8.109       6.503       2.648       4.530       4.182       3.139       1.692      1.4658E-03
   6    9.998       9.208       8.272       7.067       5.616       5.129       4.363       3.202       1.714      1.4860E-03
   7    9.999       9.293       8.495       7.555       6.524       5.640       4.610       3.314       1.757      1.5271E-03
   8    9.999       9.367       8.669       7.863       6.951       5.962       4.804       3.416       1.801      1.5678E-03
   9    9.999       9.417       8.776       8.033       7.161       6.140       4.925       3.486       1.832      1.5971E-03
  10    9.999       9.441       8.826       8.108       7.249       6.218       4.981       3.520       1.847      1.6119E-03
1
              HEAD IN LAYER   2 AT END OF TIME STEP 100 IN STRESS PERIOD    3
  ---------------------------------------------------------------------------

            1           2           3           4           5           6           7           8           9          10
 ........................................................................................................................
   1    9.999       9.383       8.710       7.942       7.057       6.042       4.847       3.433       1.804      3.7711E-03
   2    9.999       9.347       8.631       7.811       6.893       5.906       4.758       3.384       1.783      3.7263E-03
   3    9.999       9.280       8.472       7.523       6.489       5.606       4.581       3.293       1.745      3.6470E-03
   4    9.998       9.200       8.257       7.045       5.593       5.107       4.344       3.187       1.705      3.5616E-03
   5    9.998       9.153       8.098       6.486       2.992       4.517       4.169       3.128       1.685      3.5203E-03
   6    9.998       9.202       8.262       7.052       5.601       5.114       4.350       3.191       1.707      3.5659E-03
   7    9.999       9.287       8.485       7.542       6.509       5.626       4.597       3.304       1.750      3.6580E-03
   8    9.999       9.362       8.660       7.851       6.937       5.948       4.791       3.406       1.794      3.7493E-03
   9    9.999       9.413       8.768       8.022       7.148       6.127       4.912       3.476       1.825      3.8151E-03
  10    9.999       9.437       8.818       8.097       7.237       6.205       4.968       3.510       1.841      3.8481E-03
1
              HEAD IN LAYER   3 AT END OF TIME STEP 100 IN STRESS PERIOD    3
  ---------------------------------------------------------------------------

            1           2           3           4           5           6           7           8           9          10
 ........................................................................................................................
   1    9.999       9.379       8.703       7.931       7.045       6.029       4.834       3.422       1.796      4.2324E-03
   2    9.999       9.343       8.623       7.801       6.880       5.893       4.745       3.373       1.775      4.1821E-03
   3    9.999       9.276       8.464       7.512       6.475       5.592       4.568       3.282       1.737      4.0931E-03
   4    9.998       9.195       8.248       7.033       5.584       5.093       4.330       3.176       1.697      3.9973E-03
   5    9.998       9.148       8.089       6.477       3.341       4.510       4.155       3.116       1.677      3.9511E-03
   6    9.998       9.198       8.253       7.040       5.592       5.100       4.336       3.180       1.699      4.0022E-03
   7    9.999       9.283       8.478       7.531       6.496       5.612       4.584       3.293       1.743      4.1056E-03
   8    9.999       9.359       8.653       7.841       6.925       5.935       4.779       3.395       1.786      4.2082E-03
   9    9.999       9.409       8.762       8.013       7.137       6.115       4.900       3.466       1.818      4.2822E-03
  10    9.999       9.433       8.812       8.088       7.226       6.193       4.957       3.500       1.833      4.3195E-03
1
              HEAD IN LAYER   4 AT END OF TIME STEP 100 IN STRESS PERIOD    3
  ---------------------------------------------------------------------------

            1           2           3           4           5           6           7           8           9          10
 ........................................................................................................................
   1    9.999       9.377       8.698       7.925       7.037       6.021       4.826       3.415       1.791      4.2809E-03
   2    9.999       9.341       8.618       7.794       6.872       5.884       4.737       3.366       1.770      4.2298E-03
   3    9.999       9.273       8.458       7.505       6.467       5.583       4.559       3.274       1.732      4.1395E-03
   4    9.998       9.192       8.242       7.025       5.581       5.084       4.321       3.168       1.691      4.0424E-03
   5    9.998       9.145       8.083       6.473       3.563       4.508       4.147       3.109       1.672      3.9955E-03
   6    9.998       9.195       8.248       7.032       5.589       5.091       4.327       3.172       1.693      4.0474E-03
   7    9.999       9.280       8.472       7.524       6.488       5.603       4.575       3.285       1.737      4.1524E-03
   8    9.999       9.356       8.648       7.835       6.917       5.927       4.771       3.388       1.781      4.2566E-03
   9    9.999       9.407       8.757       8.007       7.130       6.107       4.893       3.459       1.813      4.3319E-03
  10    9.999       9.431       8.808       8.082       7.219       6.185       4.949       3.493       1.828      4.3698E-03
1
              HEAD IN LAYER   5 AT END OF TIME STEP 100 IN STRESS PERIOD    3
  ---------------------------------------------------------------------------

            1           2           3           4           5           6           7           8           9          10
 ........................................................................................................................
   1    9.999       9.376       8.696       7.921       7.033       6.016       4.822       3.411       1.789      4.2824E-03
   2    9.999       9.340       8.616       7.790       6.868       5.880       4.732       3.362       1.767      4.2311E-03
   3    9.999       9.272       8.456       7.501       6.462       5.579       4.555       3.271       1.729      4.1406E-03
   4    9.998       9.191       8.239       7.021       5.580       5.079       4.317       3.164       1.689      4.0433E-03
   5    9.998       9.144       8.080       6.472       3.671       4.507       4.142       3.105       1.669      3.9964E-03
   6    9.998       9.194       8.245       7.028       5.588       5.087       4.323       3.169       1.691      4.0484E-03
   7    9.999       9.279       8.470       7.520       6.483       5.598       4.571       3.282       1.735      4.1536E-03
   8    9.999       9.355       8.646       7.831       6.913       5.923       4.766       3.385       1.779      4.2582E-03
   9    9.999       9.406       8.755       8.004       7.126       6.103       4.889       3.455       1.810      4.3336E-03
  10    9.999       9.430       8.806       8.080       7.215       6.182       4.946       3.490       1.826      4.3717E-03

 HEAD WILL BE SAVED ON UNIT   51 AT END OF TIME STEP  100, STRESS PERIOD    3

 DRAWDOWN WILL BE SAVED ON UNIT   52 AT END OF TIME STEP  100, STRESS PERIOD    3
1
  VOLUMETRIC BUDGET FOR ENTIRE MODEL AT END OF TIME STEP  100, STRESS PERIOD   3
  ------------------------------------------------------------------------------

     CUMULATIVE VOLUMES      L**3       RATES FOR THIS TIME STEP      L**3/T
     ------------------                 ------------------------

           IN:                                      IN:
           ---                                      ---
             STORAGE =      450650.3438               STORAGE =         972.3624
       CONSTANT HEAD =           0.0000         CONSTANT HEAD =           0.0000
               WELLS =           0.0000                 WELLS =           0.0000
     HEAD DEP BOUNDS =       27286.2812       HEAD DEP BOUNDS =         414.3116

            TOTAL IN =      477936.6250              TOTAL IN =        1386.6741

          OUT:                                     OUT:
          ----                                     ----
             STORAGE =           0.0000               STORAGE =           0.0000
       CONSTANT HEAD =           0.0000         CONSTANT HEAD =           0.0000
               WELLS =       50000.0000                 WELLS =         500.0000
     HEAD DEP BOUNDS =      427937.5000       HEAD DEP BOUNDS =         886.6969

           TOTAL OUT =      477937.5000             TOTAL OUT =        1386.6969

            IN - OUT =          -0.8750              IN - OUT =      -2.2827E-02

 PERCENT DISCREPANCY =          -0.00     PERCENT DISCREPANCY =          -0.00






         TIME SUMMARY AT END OF TIME STEP  100 IN STRESS PERIOD    3
                    SECONDS     MINUTES      HOURS       DAYS        YEARS
                    -----------------------------------------------------------
   TIME STEP LENGTH  86400.      1440.0      24.000      1.0000     2.73785E-03
 STRESS PERIOD TIME 8.64000E+06 1.44000E+05  2400.0      100.00     0.27379    
         TOTAL TIME 1.73664E+07 2.89440E+05  4824.0      201.00     0.55031    
1

 Run end date and time (yyyy/mm/dd hh:mm:ss): 2019/07/12 11:39:29
 Elapsed run time:  0.410 Seconds

