                                  MODFLOW-2005     
      U.S. GEOLOGICAL SURVEY MODULAR FINITE-DIFFERENCE GROUND-WATER FLOW MODEL
                            VERSION 1.12.00 2/3/2017

 LIST FILE: Tutorial02.list
                         UNIT    2

 OPENING Tutorial02.dis
 FILE TYPE:DIS   UNIT   11   STATUS:OLD    
 FORMAT:FORMATTED              ACCESS:SEQUENTIAL          

 OPENING Tutorial02.bas
 FILE TYPE:BAS6   UNIT   13   STATUS:OLD    
 FORMAT:FORMATTED              ACCESS:SEQUENTIAL          

 OPENING Tutorial02.lpf
 FILE TYPE:LPF   UNIT   15   STATUS:OLD    
 FORMAT:FORMATTED              ACCESS:SEQUENTIAL          

 OPENING Tutorial02.pcg
 FILE TYPE:PCG   UNIT   27   STATUS:OLD    
 FORMAT:FORMATTED              ACCESS:SEQUENTIAL          

 OPENING Tutorial02.ghb
 FILE TYPE:GHB   UNIT   23   STATUS:OLD    
 FORMAT:FORMATTED              ACCESS:SEQUENTIAL          

 OPENING Tutorial02.wel
 FILE TYPE:WEL   UNIT   20   STATUS:OLD    
 FORMAT:FORMATTED              ACCESS:SEQUENTIAL          

 OPENING Tutorial02.oc
 FILE TYPE:OC   UNIT   14   STATUS:OLD    
 FORMAT:FORMATTED              ACCESS:SEQUENTIAL          

 OPENING Tutorial02.cbc
 FILE TYPE:DATA(BINARY)   UNIT   53   STATUS:REPLACE
 FORMAT:UNFORMATTED            ACCESS:STREAM              

 OPENING Tutorial02.hds
 FILE TYPE:DATA(BINARY)   UNIT   51   STATUS:REPLACE
 FORMAT:UNFORMATTED            ACCESS:STREAM              

 OPENING Tutorial02.ddn
 FILE TYPE:DATA(BINARY)   UNIT   52   STATUS:REPLACE
 FORMAT:UNFORMATTED            ACCESS:STREAM              

 BAS -- BASIC PACKAGE, VERSION 7, 5/2/2005 INPUT READ FROM UNIT   13
 
 MODFLOW was compiled using mixed precision
 Precision of REAL variables:           6
 Precision of DOUBLE PRECISION variables:          15

 DISCRETIZATION INPUT DATA READ FROM UNIT   11
 # DIS package for  MODFLOW-2005, generated by Flopy.
    4 LAYERS        10 ROWS        10 COLUMNS
    5 STRESS PERIOD(S) IN SIMULATION
 MODEL TIME UNIT IS DAYS
 MODEL LENGTH UNIT IS METERS
  Confining bed flag for each layer:
   0   0   0   0

                     DELR =   100.000    

                     DELC =   100.000    

 TOP ELEVATION OF LAYER 1 =   10.0000    

   MODEL LAYER BOTTOM EL. =  -5.00000     FOR LAYER   1

   MODEL LAYER BOTTOM EL. =  -20.0000     FOR LAYER   2

   MODEL LAYER BOTTOM EL. =  -35.0000     FOR LAYER   3

   MODEL LAYER BOTTOM EL. =  -50.0000     FOR LAYER   4


 STRESS PERIOD     LENGTH       TIME STEPS     MULTIPLIER FOR DELT    SS FLAG
 ----------------------------------------------------------------------------
        1         1.000000          1                    1.000         SS
        2         100.0000        100                    1.000         TR
        3         100.0000        100                    1.000         TR
        4         100.0000        100                    1.000         TR
        5         100.0000        100                    1.000         TR

 COMBINED STEADY-STATE AND TRANSIENT SIMULATION



 
 # BAS6 package for  MODFLOW-2005, generated by Flopy.                           
 THE FREE FORMAT OPTION HAS BEEN SELECTED



                     BOUNDARY ARRAY FOR LAYER   1
 READING ON UNIT   13 WITH FORMAT: (10I10)             



                     BOUNDARY ARRAY FOR LAYER   2
 READING ON UNIT   13 WITH FORMAT: (10I10)             



                     BOUNDARY ARRAY FOR LAYER   3
 READING ON UNIT   13 WITH FORMAT: (10I10)             



                     BOUNDARY ARRAY FOR LAYER   4
 READING ON UNIT   13 WITH FORMAT: (10I10)             

 AQUIFER HEAD WILL BE SET TO  -999.99     AT ALL NO-FLOW NODES (IBOUND=0).



                       INITIAL HEAD FOR LAYER   1
 READING ON UNIT   13 WITH FORMAT: (10E15.6)           



                       INITIAL HEAD FOR LAYER   2
 READING ON UNIT   13 WITH FORMAT: (10E15.6)           



                       INITIAL HEAD FOR LAYER   3
 READING ON UNIT   13 WITH FORMAT: (10E15.6)           



                       INITIAL HEAD FOR LAYER   4
 READING ON UNIT   13 WITH FORMAT: (10E15.6)           
 # OC package for  MODFLOW-2005, generated by Flopy.

 OUTPUT CONTROL IS SPECIFIED ONLY AT TIME STEPS FOR WHICH OUTPUT IS DESIRED
 COMPACT CELL-BY-CELL BUDGET FILES WILL BE WRITTEN
 AUXILIARY DATA WILL BE SAVED IN CELL-BY-CELL BUDGET FILES
 HEAD PRINT FORMAT CODE IS   0    DRAWDOWN PRINT FORMAT CODE IS   0
 HEADS WILL BE SAVED ON UNIT   51    DRAWDOWNS WILL BE SAVED ON UNIT   52

 LPF -- LAYER-PROPERTY FLOW PACKAGE, VERSION 7, 5/2/2005
         INPUT READ FROM UNIT   15
 # LPF package for  MODFLOW-2005, generated by Flopy.
 CELL-BY-CELL FLOWS WILL BE SAVED ON UNIT   53
 HEAD AT CELLS THAT CONVERT TO DRY= -1.00000E+30
 No named parameters

   LAYER FLAGS:
 LAYER       LAYTYP        LAYAVG         CHANI        LAYVKA        LAYWET
 ---------------------------------------------------------------------------
    1             1             0     1.000E+00             0             0
    2             1             0     1.000E+00             0             0
    3             1             0     1.000E+00             0             0
    4             1             0     1.000E+00             0             0

   INTERPRETATION OF LAYER FLAGS:
                        INTERBLOCK     HORIZONTAL    DATA IN
         LAYER TYPE   TRANSMISSIVITY   ANISOTROPY   ARRAY VKA   WETTABILITY
 LAYER      (LAYTYP)      (LAYAVG)       (CHANI)      (LAYVKA)      (LAYWET)
 ---------------------------------------------------------------------------
    1   CONVERTIBLE      HARMONIC     1.000E+00    VERTICAL K  NON-WETTABLE
    2   CONVERTIBLE      HARMONIC     1.000E+00    VERTICAL K  NON-WETTABLE
    3   CONVERTIBLE      HARMONIC     1.000E+00    VERTICAL K  NON-WETTABLE
    4   CONVERTIBLE      HARMONIC     1.000E+00    VERTICAL K  NON-WETTABLE

 WETTING CAPABILITY IS NOT ACTIVE IN ANY LAYER

    HYD. COND. ALONG ROWS =   1.00000     FOR LAYER   1

      VERTICAL HYD. COND. =   1.00000     FOR LAYER   1

         SPECIFIC STORAGE =  1.000000E-04 FOR LAYER   1

           SPECIFIC YIELD =  0.100000     FOR LAYER   1

    HYD. COND. ALONG ROWS =   1.00000     FOR LAYER   2

      VERTICAL HYD. COND. =   1.00000     FOR LAYER   2

         SPECIFIC STORAGE =  1.000000E-04 FOR LAYER   2

           SPECIFIC YIELD =  0.100000     FOR LAYER   2

    HYD. COND. ALONG ROWS =   1.00000     FOR LAYER   3

      VERTICAL HYD. COND. =   1.00000     FOR LAYER   3

         SPECIFIC STORAGE =  1.000000E-04 FOR LAYER   3

           SPECIFIC YIELD =  0.100000     FOR LAYER   3

    HYD. COND. ALONG ROWS =   1.00000     FOR LAYER   4

      VERTICAL HYD. COND. =   1.00000     FOR LAYER   4

         SPECIFIC STORAGE =  1.000000E-04 FOR LAYER   4

           SPECIFIC YIELD =  0.100000     FOR LAYER   4

 WEL -- WELL PACKAGE, VERSION 7, 5/2/2005 INPUT READ FROM UNIT   20
 # WEL package for  MODFLOW-2005, generated by Flopy.
 No named parameters
 MAXIMUM OF      1 ACTIVE WELLS AT ONE TIME


     0 Well parameters

 GHB -- GENERAL-HEAD BOUNDARY PACKAGE, VERSION 7, 5/2/2005
         INPUT READ FROM UNIT   23
 # GHB package for  MODFLOW-2005, generated by Flopy.
 No named parameters
 MAXIMUM OF     80 ACTIVE GHB CELLS AT ONE TIME


     0 GHB parameters

 PCG -- CONJUGATE-GRADIENT SOLUTION PACKAGE, VERSION 7, 5/2/2005
 # PCG package for  MODFLOW-2005, generated by Flopy.
 MAXIMUM OF     50 CALLS OF SOLUTION ROUTINE
 MAXIMUM OF     30 INTERNAL ITERATIONS PER CALL TO SOLUTION ROUTINE
 MATRIX PRECONDITIONING TYPE :    1



                                    SOLUTION BY THE CONJUGATE-GRADIENT METHOD
                                   -------------------------------------------
                    MAXIMUM NUMBER OF CALLS TO PCG ROUTINE =       50
                        MAXIMUM ITERATIONS PER CALL TO PCG =       30
                               MATRIX PRECONDITIONING TYPE =        1
        RELAXATION FACTOR (ONLY USED WITH PRECOND. TYPE 1) =    0.10000E+01
 PARAMETER OF POLYNOMIAL PRECOND. = 2 (2) OR IS CALCULATED :        0
                         HEAD CHANGE CRITERION FOR CLOSURE =    0.10000E-04
                     RESIDUAL CHANGE CRITERION FOR CLOSURE =    0.10000E-04
            PCG HEAD AND RESIDUAL CHANGE PRINTOUT INTERVAL =      999
     PRINTING FROM SOLVER IS LIMITED(1) OR SUPPRESSED (>1) =        3
                            STEADY-STATE DAMPING PARAMETER =    0.10000E+01
                               TRANSIENT DAMPING PARAMETER =    0.10000E+01
1
                            STRESS PERIOD NO.    1, LENGTH =   1.000000    
                            -----------------------------------------------

                              NUMBER OF TIME STEPS =     1

                               MULTIPLIER FOR DELT =     1.000

                            INITIAL TIME STEP SIZE =   1.000000    

 WELL NO.  LAYER   ROW   COL   STRESS RATE         
 --------------------------------------------------
      1      1      5      5       0.000    

      1 WELL 

 BOUND. NO. LAYER   ROW   COL     STAGE      CONDUCTANCE         
 ----------------------------------------------------------------
      1      1      1      1       10.00           6000.    
      2      1      1     10       10.00           6000.    
      3      1      2      1       10.00           6000.    
      4      1      2     10       10.00           6000.    
      5      1      3      1       10.00           6000.    
      6      1      3     10       10.00           6000.    
      7      1      4      1       10.00           6000.    
      8      1      4     10       10.00           6000.    
      9      1      5      1       10.00           6000.    
     10      1      5     10       10.00           6000.    
     11      1      6      1       10.00           6000.    
     12      1      6     10       10.00           6000.    
     13      1      7      1       10.00           6000.    
     14      1      7     10       10.00           6000.    
     15      1      8      1       10.00           6000.    
     16      1      8     10       10.00           6000.    
     17      1      9      1       10.00           6000.    
     18      1      9     10       10.00           6000.    
     19      1     10      1       10.00           6000.    
     20      1     10     10       10.00           6000.    
     21      2      1      1       10.00           6000.    
     22      2      1     10       10.00           6000.    
     23      2      2      1       10.00           6000.    
     24      2      2     10       10.00           6000.    
     25      2      3      1       10.00           6000.    
     26      2      3     10       10.00           6000.    
     27      2      4      1       10.00           6000.    
     28      2      4     10       10.00           6000.    
     29      2      5      1       10.00           6000.    
     30      2      5     10       10.00           6000.    
     31      2      6      1       10.00           6000.    
     32      2      6     10       10.00           6000.    
     33      2      7      1       10.00           6000.    
     34      2      7     10       10.00           6000.    
     35      2      8      1       10.00           6000.    
     36      2      8     10       10.00           6000.    
     37      2      9      1       10.00           6000.    
     38      2      9     10       10.00           6000.    
     39      2     10      1       10.00           6000.    
     40      2     10     10       10.00           6000.    
     41      3      1      1       10.00           6000.    
     42      3      1     10       10.00           6000.    
     43      3      2      1       10.00           6000.    
     44      3      2     10       10.00           6000.    
     45      3      3      1       10.00           6000.    
     46      3      3     10       10.00           6000.    
     47      3      4      1       10.00           6000.    
     48      3      4     10       10.00           6000.    
     49      3      5      1       10.00           6000.    
     50      3      5     10       10.00           6000.    
     51      3      6      1       10.00           6000.    
     52      3      6     10       10.00           6000.    
     53      3      7      1       10.00           6000.    
     54      3      7     10       10.00           6000.    
     55      3      8      1       10.00           6000.    
     56      3      8     10       10.00           6000.    
     57      3      9      1       10.00           6000.    
     58      3      9     10       10.00           6000.    
     59      3     10      1       10.00           6000.    
     60      3     10     10       10.00           6000.    
     61      4      1      1       10.00           6000.    
     62      4      1     10       10.00           6000.    
     63      4      2      1       10.00           6000.    
     64      4      2     10       10.00           6000.    
     65      4      3      1       10.00           6000.    
     66      4      3     10       10.00           6000.    
     67      4      4      1       10.00           6000.    
     68      4      4     10       10.00           6000.    
     69      4      5      1       10.00           6000.    
     70      4      5     10       10.00           6000.    
     71      4      6      1       10.00           6000.    
     72      4      6     10       10.00           6000.    
     73      4      7      1       10.00           6000.    
     74      4      7     10       10.00           6000.    
     75      4      8      1       10.00           6000.    
     76      4      8     10       10.00           6000.    
     77      4      9      1       10.00           6000.    
     78      4      9     10       10.00           6000.    
     79      4     10      1       10.00           6000.    
     80      4     10     10       10.00           6000.    

     80 GHB CELLS
 
 SOLVING FOR HEAD 

 OUTPUT CONTROL FOR STRESS PERIOD    1   TIME STEP    1
    SAVE HEAD FOR ALL LAYERS
    SAVE DRAWDOWN FOR ALL LAYERS
    SAVE BUDGET
    PRINT HEAD FOR ALL LAYERS
    PRINT BUDGET
 UBDSV2 SAVING "   CONSTANT HEAD" ON UNIT  53 AT TIME STEP  1, STRESS PERIOD   1
 UBDSV1 SAVING "FLOW RIGHT FACE " ON UNIT  53 AT TIME STEP  1, STRESS PERIOD   1
 UBDSV1 SAVING "FLOW FRONT FACE " ON UNIT  53 AT TIME STEP  1, STRESS PERIOD   1
 UBDSV1 SAVING "FLOW LOWER FACE " ON UNIT  53 AT TIME STEP  1, STRESS PERIOD   1
1
              HEAD IN LAYER   1 AT END OF TIME STEP   1 IN STRESS PERIOD    1
  ---------------------------------------------------------------------------

            1           2           3           4           5           6           7           8           9          10
 ........................................................................................................................
   1    10.00       10.00       10.00       10.00       10.00       10.00       10.00       10.00       10.00       10.00    
   2    10.00       10.00       10.00       10.00       10.00       10.00       10.00       10.00       10.00       10.00    
   3    10.00       10.00       10.00       10.00       10.00       10.00       10.00       10.00       10.00       10.00    
   4    10.00       10.00       10.00       10.00       10.00       10.00       10.00       10.00       10.00       10.00    
   5    10.00       10.00       10.00       10.00       10.00       10.00       10.00       10.00       10.00       10.00    
   6    10.00       10.00       10.00       10.00       10.00       10.00       10.00       10.00       10.00       10.00    
   7    10.00       10.00       10.00       10.00       10.00       10.00       10.00       10.00       10.00       10.00    
   8    10.00       10.00       10.00       10.00       10.00       10.00       10.00       10.00       10.00       10.00    
   9    10.00       10.00       10.00       10.00       10.00       10.00       10.00       10.00       10.00       10.00    
  10    10.00       10.00       10.00       10.00       10.00       10.00       10.00       10.00       10.00       10.00    
1
              HEAD IN LAYER   2 AT END OF TIME STEP   1 IN STRESS PERIOD    1
  ---------------------------------------------------------------------------

            1           2           3           4           5           6           7           8           9          10
 ........................................................................................................................
   1    10.00       10.00       10.00       10.00       10.00       10.00       10.00       10.00       10.00       10.00    
   2    10.00       10.00       10.00       10.00       10.00       10.00       10.00       10.00       10.00       10.00    
   3    10.00       10.00       10.00       10.00       10.00       10.00       10.00       10.00       10.00       10.00    
   4    10.00       10.00       10.00       10.00       10.00       10.00       10.00       10.00       10.00       10.00    
   5    10.00       10.00       10.00       10.00       10.00       10.00       10.00       10.00       10.00       10.00    
   6    10.00       10.00       10.00       10.00       10.00       10.00       10.00       10.00       10.00       10.00    
   7    10.00       10.00       10.00       10.00       10.00       10.00       10.00       10.00       10.00       10.00    
   8    10.00       10.00       10.00       10.00       10.00       10.00       10.00       10.00       10.00       10.00    
   9    10.00       10.00       10.00       10.00       10.00       10.00       10.00       10.00       10.00       10.00    
  10    10.00       10.00       10.00       10.00       10.00       10.00       10.00       10.00       10.00       10.00    
1
              HEAD IN LAYER   3 AT END OF TIME STEP   1 IN STRESS PERIOD    1
  ---------------------------------------------------------------------------

            1           2           3           4           5           6           7           8           9          10
 ........................................................................................................................
   1    10.00       10.00       10.00       10.00       10.00       10.00       10.00       10.00       10.00       10.00    
   2    10.00       10.00       10.00       10.00       10.00       10.00       10.00       10.00       10.00       10.00    
   3    10.00       10.00       10.00       10.00       10.00       10.00       10.00       10.00       10.00       10.00    
   4    10.00       10.00       10.00       10.00       10.00       10.00       10.00       10.00       10.00       10.00    
   5    10.00       10.00       10.00       10.00       10.00       10.00       10.00       10.00       10.00       10.00    
   6    10.00       10.00       10.00       10.00       10.00       10.00       10.00       10.00       10.00       10.00    
   7    10.00       10.00       10.00       10.00       10.00       10.00       10.00       10.00       10.00       10.00    
   8    10.00       10.00       10.00       10.00       10.00       10.00       10.00       10.00       10.00       10.00    
   9    10.00       10.00       10.00       10.00       10.00       10.00       10.00       10.00       10.00       10.00    
  10    10.00       10.00       10.00       10.00       10.00       10.00       10.00       10.00       10.00       10.00    
1
              HEAD IN LAYER   4 AT END OF TIME STEP   1 IN STRESS PERIOD    1
  ---------------------------------------------------------------------------

            1           2           3           4           5           6           7           8           9          10
 ........................................................................................................................
   1    10.00       10.00       10.00       10.00       10.00       10.00       10.00       10.00       10.00       10.00    
   2    10.00       10.00       10.00       10.00       10.00       10.00       10.00       10.00       10.00       10.00    
   3    10.00       10.00       10.00       10.00       10.00       10.00       10.00       10.00       10.00       10.00    
   4    10.00       10.00       10.00       10.00       10.00       10.00       10.00       10.00       10.00       10.00    
   5    10.00       10.00       10.00       10.00       10.00       10.00       10.00       10.00       10.00       10.00    
   6    10.00       10.00       10.00       10.00       10.00       10.00       10.00       10.00       10.00       10.00    
   7    10.00       10.00       10.00       10.00       10.00       10.00       10.00       10.00       10.00       10.00    
   8    10.00       10.00       10.00       10.00       10.00       10.00       10.00       10.00       10.00       10.00    
   9    10.00       10.00       10.00       10.00       10.00       10.00       10.00       10.00       10.00       10.00    
  10    10.00       10.00       10.00       10.00       10.00       10.00       10.00       10.00       10.00       10.00    

 HEAD WILL BE SAVED ON UNIT   51 AT END OF TIME STEP    1, STRESS PERIOD    1

 DRAWDOWN WILL BE SAVED ON UNIT   52 AT END OF TIME STEP    1, STRESS PERIOD    1
1
  VOLUMETRIC BUDGET FOR ENTIRE MODEL AT END OF TIME STEP    1, STRESS PERIOD   1
  ------------------------------------------------------------------------------

     CUMULATIVE VOLUMES      L**3       RATES FOR THIS TIME STEP      L**3/T
     ------------------                 ------------------------

           IN:                                      IN:
           ---                                      ---
             STORAGE =           0.0000               STORAGE =           0.0000
       CONSTANT HEAD =           0.0000         CONSTANT HEAD =           0.0000
               WELLS =           0.0000                 WELLS =           0.0000
     HEAD DEP BOUNDS =           0.0000       HEAD DEP BOUNDS =           0.0000

            TOTAL IN =           0.0000              TOTAL IN =           0.0000

          OUT:                                     OUT:
          ----                                     ----
             STORAGE =           0.0000               STORAGE =           0.0000
       CONSTANT HEAD =           0.0000         CONSTANT HEAD =           0.0000
               WELLS =           0.0000                 WELLS =           0.0000
     HEAD DEP BOUNDS =           0.0000       HEAD DEP BOUNDS =           0.0000

           TOTAL OUT =           0.0000             TOTAL OUT =           0.0000

            IN - OUT =           0.0000              IN - OUT =           0.0000

 PERCENT DISCREPANCY =           0.00     PERCENT DISCREPANCY =           0.00






         TIME SUMMARY AT END OF TIME STEP    1 IN STRESS PERIOD    1
                    SECONDS     MINUTES      HOURS       DAYS        YEARS
                    -----------------------------------------------------------
   TIME STEP LENGTH  86400.      1440.0      24.000      1.0000     2.73785E-03
 STRESS PERIOD TIME  86400.      1440.0      24.000      1.0000     2.73785E-03
         TOTAL TIME  86400.      1440.0      24.000      1.0000     2.73785E-03
1
1
                            STRESS PERIOD NO.    2, LENGTH =   100.0000    
                            -----------------------------------------------

                              NUMBER OF TIME STEPS =   100

                               MULTIPLIER FOR DELT =     1.000

                            INITIAL TIME STEP SIZE =   1.000000    

 WELL NO.  LAYER   ROW   COL   STRESS RATE         
 --------------------------------------------------
      1      1      5      5       0.000    

      1 WELL 

 BOUND. NO. LAYER   ROW   COL     STAGE      CONDUCTANCE         
 ----------------------------------------------------------------
      1      1      1      1       10.00           6000.    
      2      1      1     10       0.000           5000.    
      3      1      2      1       10.00           6000.    
      4      1      2     10       0.000           5000.    
      5      1      3      1       10.00           6000.    
      6      1      3     10       0.000           5000.    
      7      1      4      1       10.00           6000.    
      8      1      4     10       0.000           5000.    
      9      1      5      1       10.00           6000.    
     10      1      5     10       0.000           5000.    
     11      1      6      1       10.00           6000.    
     12      1      6     10       0.000           5000.    
     13      1      7      1       10.00           6000.    
     14      1      7     10       0.000           5000.    
     15      1      8      1       10.00           6000.    
     16      1      8     10       0.000           5000.    
     17      1      9      1       10.00           6000.    
     18      1      9     10       0.000           5000.    
     19      1     10      1       10.00           6000.    
     20      1     10     10       0.000           5000.    
     21      2      1      1       10.00           6000.    
     22      2      1     10       0.000           5000.    
     23      2      2      1       10.00           6000.    
     24      2      2     10       0.000           5000.    
     25      2      3      1       10.00           6000.    
     26      2      3     10       0.000           5000.    
     27      2      4      1       10.00           6000.    
     28      2      4     10       0.000           5000.    
     29      2      5      1       10.00           6000.    
     30      2      5     10       0.000           5000.    
     31      2      6      1       10.00           6000.    
     32      2      6     10       0.000           5000.    
     33      2      7      1       10.00           6000.    
     34      2      7     10       0.000           5000.    
     35      2      8      1       10.00           6000.    
     36      2      8     10       0.000           5000.    
     37      2      9      1       10.00           6000.    
     38      2      9     10       0.000           5000.    
     39      2     10      1       10.00           6000.    
     40      2     10     10       0.000           5000.    
     41      3      1      1       10.00           6000.    
     42      3      1     10       0.000           5000.    
     43      3      2      1       10.00           6000.    
     44      3      2     10       0.000           5000.    
     45      3      3      1       10.00           6000.    
     46      3      3     10       0.000           5000.    
     47      3      4      1       10.00           6000.    
     48      3      4     10       0.000           5000.    
     49      3      5      1       10.00           6000.    
     50      3      5     10       0.000           5000.    
     51      3      6      1       10.00           6000.    
     52      3      6     10       0.000           5000.    
     53      3      7      1       10.00           6000.    
     54      3      7     10       0.000           5000.    
     55      3      8      1       10.00           6000.    
     56      3      8     10       0.000           5000.    
     57      3      9      1       10.00           6000.    
     58      3      9     10       0.000           5000.    
     59      3     10      1       10.00           6000.    
     60      3     10     10       0.000           5000.    
     61      4      1      1       10.00           6000.    
     62      4      1     10       0.000           5000.    
     63      4      2      1       10.00           6000.    
     64      4      2     10       0.000           5000.    
     65      4      3      1       10.00           6000.    
     66      4      3     10       0.000           5000.    
     67      4      4      1       10.00           6000.    
     68      4      4     10       0.000           5000.    
     69      4      5      1       10.00           6000.    
     70      4      5     10       0.000           5000.    
     71      4      6      1       10.00           6000.    
     72      4      6     10       0.000           5000.    
     73      4      7      1       10.00           6000.    
     74      4      7     10       0.000           5000.    
     75      4      8      1       10.00           6000.    
     76      4      8     10       0.000           5000.    
     77      4      9      1       10.00           6000.    
     78      4      9     10       0.000           5000.    
     79      4     10      1       10.00           6000.    
     80      4     10     10       0.000           5000.    

     80 GHB CELLS
 
 SOLVING FOR HEAD 

 OUTPUT CONTROL FOR STRESS PERIOD    2   TIME STEP    1
    SAVE HEAD FOR ALL LAYERS
    SAVE DRAWDOWN FOR ALL LAYERS
    SAVE BUDGET
    PRINT HEAD FOR ALL LAYERS
    PRINT BUDGET
 UBDSV1 SAVING "         STORAGE" ON UNIT  53 AT TIME STEP  1, STRESS PERIOD   2
 UBDSV2 SAVING "   CONSTANT HEAD" ON UNIT  53 AT TIME STEP  1, STRESS PERIOD   2
 UBDSV1 SAVING "FLOW RIGHT FACE " ON UNIT  53 AT TIME STEP  1, STRESS PERIOD   2
 UBDSV1 SAVING "FLOW FRONT FACE " ON UNIT  53 AT TIME STEP  1, STRESS PERIOD   2
 UBDSV1 SAVING "FLOW LOWER FACE " ON UNIT  53 AT TIME STEP  1, STRESS PERIOD   2
1
              HEAD IN LAYER   1 AT END OF TIME STEP   1 IN STRESS PERIOD    2
  ---------------------------------------------------------------------------

            1           2           3           4           5           6           7           8           9          10
 ........................................................................................................................
   1    10.00       10.00       10.00       10.00       10.00      10.000       9.996       9.963       9.627       1.488    
   2    10.00       10.00       10.00       10.00       10.00      10.000       9.996       9.963       9.627       1.488    
   3    10.00       10.00       10.00       10.00       10.00      10.000       9.996       9.963       9.627       1.488    
   4    10.00       10.00       10.00       10.00       10.00      10.000       9.996       9.963       9.627       1.488    
   5    10.00       10.00       10.00       10.00       10.00      10.000       9.996       9.963       9.627       1.488    
   6    10.00       10.00       10.00       10.00       10.00      10.000       9.996       9.963       9.627       1.488    
   7    10.00       10.00       10.00       10.00       10.00      10.000       9.996       9.963       9.627       1.488    
   8    10.00       10.00       10.00       10.00       10.00      10.000       9.996       9.963       9.627       1.488    
   9    10.00       10.00       10.00       10.00       10.00      10.000       9.996       9.963       9.627       1.488    
  10    10.00       10.00       10.00       10.00       10.00      10.000       9.996       9.963       9.627       1.488    
1
              HEAD IN LAYER   2 AT END OF TIME STEP   1 IN STRESS PERIOD    2
  ---------------------------------------------------------------------------

            1           2           3           4           5           6           7           8           9          10
 ........................................................................................................................
   1    10.00       10.00       10.00       10.00      10.000       9.999       9.991       9.914       9.175      0.2603    
   2    10.00       10.00       10.00       10.00      10.000       9.999       9.991       9.914       9.175      0.2603    
   3    10.00       10.00       10.00       10.00      10.000       9.999       9.991       9.914       9.175      0.2603    
   4    10.00       10.00       10.00       10.00      10.000       9.999       9.991       9.914       9.175      0.2603    
   5    10.00       10.00       10.00       10.00      10.000       9.999       9.991       9.914       9.175      0.2603    
   6    10.00       10.00       10.00       10.00      10.000       9.999       9.991       9.914       9.175      0.2603    
   7    10.00       10.00       10.00       10.00      10.000       9.999       9.991       9.914       9.175      0.2603    
   8    10.00       10.00       10.00       10.00      10.000       9.999       9.991       9.914       9.175      0.2603    
   9    10.00       10.00       10.00       10.00      10.000       9.999       9.991       9.914       9.175      0.2603    
  10    10.00       10.00       10.00       10.00      10.000       9.999       9.991       9.914       9.175      0.2603    
1
              HEAD IN LAYER   3 AT END OF TIME STEP   1 IN STRESS PERIOD    2
  ---------------------------------------------------------------------------

            1           2           3           4           5           6           7           8           9          10
 ........................................................................................................................
   1    10.00       10.00       10.00       10.00      10.000       9.999       9.987       9.877       8.882      7.7901E-02
   2    10.00       10.00       10.00       10.00      10.000       9.999       9.987       9.877       8.882      7.7901E-02
   3    10.00       10.00       10.00       10.00      10.000       9.999       9.987       9.877       8.882      7.7901E-02
   4    10.00       10.00       10.00       10.00      10.000       9.999       9.987       9.877       8.882      7.7901E-02
   5    10.00       10.00       10.00       10.00      10.000       9.999       9.987       9.877       8.882      7.7901E-02
   6    10.00       10.00       10.00       10.00      10.000       9.999       9.987       9.877       8.882      7.7901E-02
   7    10.00       10.00       10.00       10.00      10.000       9.999       9.987       9.877       8.882      7.7901E-02
   8    10.00       10.00       10.00       10.00      10.000       9.999       9.987       9.877       8.882      7.7901E-02
   9    10.00       10.00       10.00       10.00      10.000       9.999       9.987       9.877       8.882      7.7901E-02
  10    10.00       10.00       10.00       10.00      10.000       9.999       9.987       9.877       8.882      7.7901E-02
1
              HEAD IN LAYER   4 AT END OF TIME STEP   1 IN STRESS PERIOD    2
  ---------------------------------------------------------------------------

            1           2           3           4           5           6           7           8           9          10
 ........................................................................................................................
   1    10.00       10.00       10.00       10.00      10.000       9.998       9.984       9.858       8.740      5.8462E-02
   2    10.00       10.00       10.00       10.00      10.000       9.998       9.984       9.858       8.740      5.8462E-02
   3    10.00       10.00       10.00       10.00      10.000       9.998       9.984       9.858       8.740      5.8462E-02
   4    10.00       10.00       10.00       10.00      10.000       9.998       9.984       9.858       8.740      5.8462E-02
   5    10.00       10.00       10.00       10.00      10.000       9.998       9.984       9.858       8.740      5.8462E-02
   6    10.00       10.00       10.00       10.00      10.000       9.998       9.984       9.858       8.740      5.8462E-02
   7    10.00       10.00       10.00       10.00      10.000       9.998       9.984       9.858       8.740      5.8462E-02
   8    10.00       10.00       10.00       10.00      10.000       9.998       9.984       9.858       8.740      5.8462E-02
   9    10.00       10.00       10.00       10.00      10.000       9.998       9.984       9.858       8.740      5.8462E-02
  10    10.00       10.00       10.00       10.00      10.000       9.998       9.984       9.858       8.740      5.8462E-02

 HEAD WILL BE SAVED ON UNIT   51 AT END OF TIME STEP    1, STRESS PERIOD    2

 DRAWDOWN WILL BE SAVED ON UNIT   52 AT END OF TIME STEP    1, STRESS PERIOD    2
1
  VOLUMETRIC BUDGET FOR ENTIRE MODEL AT END OF TIME STEP    1, STRESS PERIOD   2
  ------------------------------------------------------------------------------

     CUMULATIVE VOLUMES      L**3       RATES FOR THIS TIME STEP      L**3/T
     ------------------                 ------------------------

           IN:                                      IN:
           ---                                      ---
             STORAGE =       94248.5938               STORAGE =       94248.5938
       CONSTANT HEAD =           0.0000         CONSTANT HEAD =           0.0000
               WELLS =           0.0000                 WELLS =           0.0000
     HEAD DEP BOUNDS =       6.3648E-05       HEAD DEP BOUNDS =       6.3648E-05

            TOTAL IN =       94248.5938              TOTAL IN =       94248.5938

          OUT:                                     OUT:
          ----                                     ----
             STORAGE =           0.0000               STORAGE =           0.0000
       CONSTANT HEAD =           0.0000         CONSTANT HEAD =           0.0000
               WELLS =           0.0000                 WELLS =           0.0000
     HEAD DEP BOUNDS =       94248.5938       HEAD DEP BOUNDS =       94248.5938

           TOTAL OUT =       94248.5938             TOTAL OUT =       94248.5938

            IN - OUT =           0.0000              IN - OUT =           0.0000

 PERCENT DISCREPANCY =           0.00     PERCENT DISCREPANCY =           0.00






         TIME SUMMARY AT END OF TIME STEP    1 IN STRESS PERIOD    2
                    SECONDS     MINUTES      HOURS       DAYS        YEARS
                    -----------------------------------------------------------
   TIME STEP LENGTH  86400.      1440.0      24.000      1.0000     2.73785E-03
 STRESS PERIOD TIME  86400.      1440.0      24.000      1.0000     2.73785E-03
         TOTAL TIME 1.72800E+05  2880.0      48.000      2.0000     5.47570E-03
1
 
 SOLVING FOR HEAD 

 OUTPUT CONTROL FOR STRESS PERIOD    2   TIME STEP    2
    SAVE HEAD FOR ALL LAYERS
    SAVE DRAWDOWN FOR ALL LAYERS
    SAVE BUDGET
    PRINT HEAD FOR ALL LAYERS
    PRINT BUDGET
 UBDSV1 SAVING "         STORAGE" ON UNIT  53 AT TIME STEP  2, STRESS PERIOD   2
 UBDSV2 SAVING "   CONSTANT HEAD" ON UNIT  53 AT TIME STEP  2, STRESS PERIOD   2
 UBDSV1 SAVING "FLOW RIGHT FACE " ON UNIT  53 AT TIME STEP  2, STRESS PERIOD   2
 UBDSV1 SAVING "FLOW FRONT FACE " ON UNIT  53 AT TIME STEP  2, STRESS PERIOD   2
 UBDSV1 SAVING "FLOW LOWER FACE " ON UNIT  53 AT TIME STEP  2, STRESS PERIOD   2
1
              HEAD IN LAYER   1 AT END OF TIME STEP   2 IN STRESS PERIOD    2
  ---------------------------------------------------------------------------

            1           2           3           4           5           6           7           8           9          10
 ........................................................................................................................
   1    10.00       10.00       10.00       10.00      10.000       9.999       9.989       9.910       9.257      0.2310    
   2    10.00       10.00       10.00       10.00      10.000       9.999       9.989       9.910       9.257      0.2310    
   3    10.00       10.00       10.00       10.00      10.000       9.999       9.989       9.910       9.257      0.2310    
   4    10.00       10.00       10.00       10.00      10.000       9.999       9.989       9.910       9.257      0.2310    
   5    10.00       10.00       10.00       10.00      10.000       9.999       9.989       9.910       9.257      0.2310    
   6    10.00       10.00       10.00       10.00      10.000       9.999       9.989       9.910       9.257      0.2310    
   7    10.00       10.00       10.00       10.00      10.000       9.999       9.989       9.910       9.257      0.2310    
   8    10.00       10.00       10.00       10.00      10.000       9.999       9.989       9.910       9.257      0.2310    
   9    10.00       10.00       10.00       10.00      10.000       9.999       9.989       9.910       9.257      0.2310    
  10    10.00       10.00       10.00       10.00      10.000       9.999       9.989       9.910       9.257      0.2310    
1
              HEAD IN LAYER   2 AT END OF TIME STEP   2 IN STRESS PERIOD    2
  ---------------------------------------------------------------------------

            1           2           3           4           5           6           7           8           9          10
 ........................................................................................................................
   1    10.00       10.00       10.00       10.00      10.000       9.997       9.980       9.843       8.803      5.7375E-02
   2    10.00       10.00       10.00       10.00      10.000       9.997       9.980       9.843       8.803      5.7375E-02
   3    10.00       10.00       10.00       10.00      10.000       9.997       9.980       9.843       8.803      5.7375E-02
   4    10.00       10.00       10.00       10.00      10.000       9.997       9.980       9.843       8.803      5.7375E-02
   5    10.00       10.00       10.00       10.00      10.000       9.997       9.980       9.843       8.803      5.7375E-02
   6    10.00       10.00       10.00       10.00      10.000       9.997       9.980       9.843       8.803      5.7375E-02
   7    10.00       10.00       10.00       10.00      10.000       9.997       9.980       9.843       8.803      5.7375E-02
   8    10.00       10.00       10.00       10.00      10.000       9.997       9.980       9.843       8.803      5.7375E-02
   9    10.00       10.00       10.00       10.00      10.000       9.997       9.980       9.843       8.803      5.7375E-02
  10    10.00       10.00       10.00       10.00      10.000       9.997       9.980       9.843       8.803      5.7375E-02
1
              HEAD IN LAYER   3 AT END OF TIME STEP   2 IN STRESS PERIOD    2
  ---------------------------------------------------------------------------

            1           2           3           4           5           6           7           8           9          10
 ........................................................................................................................
   1    10.00       10.00       10.00      10.000      10.000       9.997       9.973       9.794       8.503      2.8915E-02
   2    10.00       10.00       10.00      10.000      10.000       9.997       9.973       9.794       8.503      2.8915E-02
   3    10.00       10.00       10.00      10.000      10.000       9.997       9.973       9.794       8.503      2.8915E-02
   4    10.00       10.00       10.00      10.000      10.000       9.997       9.973       9.794       8.503      2.8915E-02
   5    10.00       10.00       10.00      10.000      10.000       9.997       9.973       9.794       8.503      2.8915E-02
   6    10.00       10.00       10.00      10.000      10.000       9.997       9.973       9.794       8.503      2.8915E-02
   7    10.00       10.00       10.00      10.000      10.000       9.997       9.973       9.794       8.503      2.8915E-02
   8    10.00       10.00       10.00      10.000      10.000       9.997       9.973       9.794       8.503      2.8915E-02
   9    10.00       10.00       10.00      10.000      10.000       9.997       9.973       9.794       8.503      2.8915E-02
  10    10.00       10.00       10.00      10.000      10.000       9.997       9.973       9.794       8.503      2.8915E-02
1
              HEAD IN LAYER   4 AT END OF TIME STEP   2 IN STRESS PERIOD    2
  ---------------------------------------------------------------------------

            1           2           3           4           5           6           7           8           9          10
 ........................................................................................................................
   1    10.00       10.00       10.00      10.000      10.000       9.996       9.969       9.769       8.356      2.5541E-02
   2    10.00       10.00       10.00      10.000      10.000       9.996       9.969       9.769       8.356      2.5541E-02
   3    10.00       10.00       10.00      10.000      10.000       9.996       9.969       9.769       8.356      2.5541E-02
   4    10.00       10.00       10.00      10.000      10.000       9.996       9.969       9.769       8.356      2.5541E-02
   5    10.00       10.00       10.00      10.000      10.000       9.996       9.969       9.769       8.356      2.5541E-02
   6    10.00       10.00       10.00      10.000      10.000       9.996       9.969       9.769       8.356      2.5541E-02
   7    10.00       10.00       10.00      10.000      10.000       9.996       9.969       9.769       8.356      2.5541E-02
   8    10.00       10.00       10.00      10.000      10.000       9.996       9.969       9.769       8.356      2.5541E-02
   9    10.00       10.00       10.00      10.000      10.000       9.996       9.969       9.769       8.356      2.5541E-02
  10    10.00       10.00       10.00      10.000      10.000       9.996       9.969       9.769       8.356      2.5541E-02

 HEAD WILL BE SAVED ON UNIT   51 AT END OF TIME STEP    2, STRESS PERIOD    2

 DRAWDOWN WILL BE SAVED ON UNIT   52 AT END OF TIME STEP    2, STRESS PERIOD    2
1
  VOLUMETRIC BUDGET FOR ENTIRE MODEL AT END OF TIME STEP    2, STRESS PERIOD   2
  ------------------------------------------------------------------------------

     CUMULATIVE VOLUMES      L**3       RATES FOR THIS TIME STEP      L**3/T
     ------------------                 ------------------------

           IN:                                      IN:
           ---                                      ---
             STORAGE =      111388.6094               STORAGE =       17140.0156
       CONSTANT HEAD =           0.0000         CONSTANT HEAD =           0.0000
               WELLS =           0.0000                 WELLS =           0.0000
     HEAD DEP BOUNDS =       3.7660E-04       HEAD DEP BOUNDS =       3.1295E-04

            TOTAL IN =      111388.6094              TOTAL IN =       17140.0156

          OUT:                                     OUT:
          ----                                     ----
             STORAGE =           0.0000               STORAGE =           0.0000
       CONSTANT HEAD =           0.0000         CONSTANT HEAD =           0.0000
               WELLS =           0.0000                 WELLS =           0.0000
     HEAD DEP BOUNDS =      111388.6094       HEAD DEP BOUNDS =       17140.0137

           TOTAL OUT =      111388.6094             TOTAL OUT =       17140.0137

            IN - OUT =           0.0000              IN - OUT =       1.9531E-03

 PERCENT DISCREPANCY =           0.00     PERCENT DISCREPANCY =           0.00






         TIME SUMMARY AT END OF TIME STEP    2 IN STRESS PERIOD    2
                    SECONDS     MINUTES      HOURS       DAYS        YEARS
                    -----------------------------------------------------------
   TIME STEP LENGTH  86400.      1440.0      24.000      1.0000     2.73785E-03
 STRESS PERIOD TIME 1.72800E+05  2880.0      48.000      2.0000     5.47570E-03
         TOTAL TIME 2.59200E+05  4320.0      72.000      3.0000     8.21355E-03
1
 
 SOLVING FOR HEAD 

 OUTPUT CONTROL FOR STRESS PERIOD    2   TIME STEP    3
    SAVE HEAD FOR ALL LAYERS
    SAVE DRAWDOWN FOR ALL LAYERS
    SAVE BUDGET
    PRINT HEAD FOR ALL LAYERS
    PRINT BUDGET
 UBDSV1 SAVING "         STORAGE" ON UNIT  53 AT TIME STEP  3, STRESS PERIOD   2
 UBDSV2 SAVING "   CONSTANT HEAD" ON UNIT  53 AT TIME STEP  3, STRESS PERIOD   2
 UBDSV1 SAVING "FLOW RIGHT FACE " ON UNIT  53 AT TIME STEP  3, STRESS PERIOD   2
 UBDSV1 SAVING "FLOW FRONT FACE " ON UNIT  53 AT TIME STEP  3, STRESS PERIOD   2
 UBDSV1 SAVING "FLOW LOWER FACE " ON UNIT  53 AT TIME STEP  3, STRESS PERIOD   2
1
              HEAD IN LAYER   1 AT END OF TIME STEP   3 IN STRESS PERIOD    2
  ---------------------------------------------------------------------------

            1           2           3           4           5           6           7           8           9          10
 ........................................................................................................................
   1    10.00       10.00       10.00       10.00      10.000       9.997       9.979       9.846       8.913      4.6465E-02
   2    10.00       10.00       10.00       10.00      10.000       9.997       9.979       9.846       8.913      4.6465E-02
   3    10.00       10.00       10.00       10.00      10.000       9.997       9.979       9.846       8.913      4.6465E-02
   4    10.00       10.00       10.00       10.00      10.000       9.997       9.979       9.846       8.913      4.6465E-02
   5    10.00       10.00       10.00       10.00      10.000       9.997       9.979       9.846       8.913      4.6465E-02
   6    10.00       10.00       10.00       10.00      10.000       9.997       9.979       9.846       8.913      4.6465E-02
   7    10.00       10.00       10.00       10.00      10.000       9.997       9.979       9.846       8.913      4.6465E-02
   8    10.00       10.00       10.00       10.00      10.000       9.997       9.979       9.846       8.913      4.6465E-02
   9    10.00       10.00       10.00       10.00      10.000       9.997       9.979       9.846       8.913      4.6465E-02
  10    10.00       10.00       10.00       10.00      10.000       9.997       9.979       9.846       8.913      4.6465E-02
1
              HEAD IN LAYER   2 AT END OF TIME STEP   3 IN STRESS PERIOD    2
  ---------------------------------------------------------------------------

            1           2           3           4           5           6           7           8           9          10
 ........................................................................................................................
   1    10.00       10.00       10.00      10.000       9.999       9.995       9.966       9.769       8.492      2.8568E-02
   2    10.00       10.00       10.00      10.000       9.999       9.995       9.966       9.769       8.492      2.8568E-02
   3    10.00       10.00       10.00      10.000       9.999       9.995       9.966       9.769       8.492      2.8568E-02
   4    10.00       10.00       10.00      10.000       9.999       9.995       9.966       9.769       8.492      2.8568E-02
   5    10.00       10.00       10.00      10.000       9.999       9.995       9.966       9.769       8.492      2.8568E-02
   6    10.00       10.00       10.00      10.000       9.999       9.995       9.966       9.769       8.492      2.8568E-02
   7    10.00       10.00       10.00      10.000       9.999       9.995       9.966       9.769       8.492      2.8568E-02
   8    10.00       10.00       10.00      10.000       9.999       9.995       9.966       9.769       8.492      2.8568E-02
   9    10.00       10.00       10.00      10.000       9.999       9.995       9.966       9.769       8.492      2.8568E-02
  10    10.00       10.00       10.00      10.000       9.999       9.995       9.966       9.769       8.492      2.8568E-02
1
              HEAD IN LAYER   3 AT END OF TIME STEP   3 IN STRESS PERIOD    2
  ---------------------------------------------------------------------------

            1           2           3           4           5           6           7           8           9          10
 ........................................................................................................................
   1    10.00       10.00       10.00      10.000       9.999       9.994       9.957       9.714       8.210      2.4955E-02
   2    10.00       10.00       10.00      10.000       9.999       9.994       9.957       9.714       8.210      2.4955E-02
   3    10.00       10.00       10.00      10.000       9.999       9.994       9.957       9.714       8.210      2.4955E-02
   4    10.00       10.00       10.00      10.000       9.999       9.994       9.957       9.714       8.210      2.4955E-02
   5    10.00       10.00       10.00      10.000       9.999       9.994       9.957       9.714       8.210      2.4955E-02
   6    10.00       10.00       10.00      10.000       9.999       9.994       9.957       9.714       8.210      2.4955E-02
   7    10.00       10.00       10.00      10.000       9.999       9.994       9.957       9.714       8.210      2.4955E-02
   8    10.00       10.00       10.00      10.000       9.999       9.994       9.957       9.714       8.210      2.4955E-02
   9    10.00       10.00       10.00      10.000       9.999       9.994       9.957       9.714       8.210      2.4955E-02
  10    10.00       10.00       10.00      10.000       9.999       9.994       9.957       9.714       8.210      2.4955E-02
1
              HEAD IN LAYER   4 AT END OF TIME STEP   3 IN STRESS PERIOD    2
  ---------------------------------------------------------------------------

            1           2           3           4           5           6           7           8           9          10
 ........................................................................................................................
   1    10.00       10.00       10.00      10.000       9.999       9.993       9.953       9.686       8.072      2.4242E-02
   2    10.00       10.00       10.00      10.000       9.999       9.993       9.953       9.686       8.072      2.4242E-02
   3    10.00       10.00       10.00      10.000       9.999       9.993       9.953       9.686       8.072      2.4242E-02
   4    10.00       10.00       10.00      10.000       9.999       9.993       9.953       9.686       8.072      2.4242E-02
   5    10.00       10.00       10.00      10.000       9.999       9.993       9.953       9.686       8.072      2.4242E-02
   6    10.00       10.00       10.00      10.000       9.999       9.993       9.953       9.686       8.072      2.4242E-02
   7    10.00       10.00       10.00      10.000       9.999       9.993       9.953       9.686       8.072      2.4242E-02
   8    10.00       10.00       10.00      10.000       9.999       9.993       9.953       9.686       8.072      2.4242E-02
   9    10.00       10.00       10.00      10.000       9.999       9.993       9.953       9.686       8.072      2.4242E-02
  10    10.00       10.00       10.00      10.000       9.999       9.993       9.953       9.686       8.072      2.4242E-02

 HEAD WILL BE SAVED ON UNIT   51 AT END OF TIME STEP    3, STRESS PERIOD    2

 DRAWDOWN WILL BE SAVED ON UNIT   52 AT END OF TIME STEP    3, STRESS PERIOD    2
1
  VOLUMETRIC BUDGET FOR ENTIRE MODEL AT END OF TIME STEP    3, STRESS PERIOD   2
  ------------------------------------------------------------------------------

     CUMULATIVE VOLUMES      L**3       RATES FOR THIS TIME STEP      L**3/T
     ------------------                 ------------------------

           IN:                                      IN:
           ---                                      ---
             STORAGE =      117600.0703               STORAGE =        6211.4580
       CONSTANT HEAD =           0.0000         CONSTANT HEAD =           0.0000
               WELLS =           0.0000                 WELLS =           0.0000
     HEAD DEP BOUNDS =       1.1377E-03       HEAD DEP BOUNDS =       7.6110E-04

            TOTAL IN =      117600.0703              TOTAL IN =        6211.4590

          OUT:                                     OUT:
          ----                                     ----
             STORAGE =           0.0000               STORAGE =           0.0000
       CONSTANT HEAD =           0.0000         CONSTANT HEAD =           0.0000
               WELLS =           0.0000                 WELLS =           0.0000
     HEAD DEP BOUNDS =      117600.0703       HEAD DEP BOUNDS =        6211.4600

           TOTAL OUT =      117600.0703             TOTAL OUT =        6211.4600

            IN - OUT =           0.0000              IN - OUT =      -9.7656E-04

 PERCENT DISCREPANCY =           0.00     PERCENT DISCREPANCY =          -0.00






         TIME SUMMARY AT END OF TIME STEP    3 IN STRESS PERIOD    2
                    SECONDS     MINUTES      HOURS       DAYS        YEARS
                    -----------------------------------------------------------
   TIME STEP LENGTH  86400.      1440.0      24.000      1.0000     2.73785E-03
 STRESS PERIOD TIME 2.59200E+05  4320.0      72.000      3.0000     8.21355E-03
         TOTAL TIME 3.45600E+05  5760.0      96.000      4.0000     1.09514E-02
1
 
 SOLVING FOR HEAD 

 OUTPUT CONTROL FOR STRESS PERIOD    2   TIME STEP    4
    SAVE HEAD FOR ALL LAYERS
    SAVE DRAWDOWN FOR ALL LAYERS
    SAVE BUDGET
    PRINT HEAD FOR ALL LAYERS
    PRINT BUDGET
 UBDSV1 SAVING "         STORAGE" ON UNIT  53 AT TIME STEP  4, STRESS PERIOD   2
 UBDSV2 SAVING "   CONSTANT HEAD" ON UNIT  53 AT TIME STEP  4, STRESS PERIOD   2
 UBDSV1 SAVING "FLOW RIGHT FACE " ON UNIT  53 AT TIME STEP  4, STRESS PERIOD   2
 UBDSV1 SAVING "FLOW FRONT FACE " ON UNIT  53 AT TIME STEP  4, STRESS PERIOD   2
 UBDSV1 SAVING "FLOW LOWER FACE " ON UNIT  53 AT TIME STEP  4, STRESS PERIOD   2
1
              HEAD IN LAYER   1 AT END OF TIME STEP   4 IN STRESS PERIOD    2
  ---------------------------------------------------------------------------

            1           2           3           4           5           6           7           8           9          10
 ........................................................................................................................
   1    10.00       10.00       10.00      10.000       9.999       9.995       9.966       9.775       8.595      1.8998E-02
   2    10.00       10.00       10.00      10.000       9.999       9.995       9.966       9.775       8.595      1.8998E-02
   3    10.00       10.00       10.00      10.000       9.999       9.995       9.966       9.775       8.595      1.8998E-02
   4    10.00       10.00       10.00      10.000       9.999       9.995       9.966       9.775       8.595      1.8998E-02
   5    10.00       10.00       10.00      10.000       9.999       9.995       9.966       9.775       8.595      1.8998E-02
   6    10.00       10.00       10.00      10.000       9.999       9.995       9.966       9.775       8.595      1.8998E-02
   7    10.00       10.00       10.00      10.000       9.999       9.995       9.966       9.775       8.595      1.8998E-02
   8    10.00       10.00       10.00      10.000       9.999       9.995       9.966       9.775       8.595      1.8998E-02
   9    10.00       10.00       10.00      10.000       9.999       9.995       9.966       9.775       8.595      1.8998E-02
  10    10.00       10.00       10.00      10.000       9.999       9.995       9.966       9.775       8.595      1.8998E-02
1
              HEAD IN LAYER   2 AT END OF TIME STEP   4 IN STRESS PERIOD    2
  ---------------------------------------------------------------------------

            1           2           3           4           5           6           7           8           9          10
 ........................................................................................................................
   1    10.00       10.00       10.00      10.000       9.999       9.992       9.950       9.690       8.207      2.3645E-02
   2    10.00       10.00       10.00      10.000       9.999       9.992       9.950       9.690       8.207      2.3645E-02
   3    10.00       10.00       10.00      10.000       9.999       9.992       9.950       9.690       8.207      2.3645E-02
   4    10.00       10.00       10.00      10.000       9.999       9.992       9.950       9.690       8.207      2.3645E-02
   5    10.00       10.00       10.00      10.000       9.999       9.992       9.950       9.690       8.207      2.3645E-02
   6    10.00       10.00       10.00      10.000       9.999       9.992       9.950       9.690       8.207      2.3645E-02
   7    10.00       10.00       10.00      10.000       9.999       9.992       9.950       9.690       8.207      2.3645E-02
   8    10.00       10.00       10.00      10.000       9.999       9.992       9.950       9.690       8.207      2.3645E-02
   9    10.00       10.00       10.00      10.000       9.999       9.992       9.950       9.690       8.207      2.3645E-02
  10    10.00       10.00       10.00      10.000       9.999       9.992       9.950       9.690       8.207      2.3645E-02
1
              HEAD IN LAYER   3 AT END OF TIME STEP   4 IN STRESS PERIOD    2
  ---------------------------------------------------------------------------

            1           2           3           4           5           6           7           8           9          10
 ........................................................................................................................
   1    10.00       10.00       10.00      10.000       9.999       9.991       9.939       9.631       7.943      2.3713E-02
   2    10.00       10.00       10.00      10.000       9.999       9.991       9.939       9.631       7.943      2.3713E-02
   3    10.00       10.00       10.00      10.000       9.999       9.991       9.939       9.631       7.943      2.3713E-02
   4    10.00       10.00       10.00      10.000       9.999       9.991       9.939       9.631       7.943      2.3713E-02
   5    10.00       10.00       10.00      10.000       9.999       9.991       9.939       9.631       7.943      2.3713E-02
   6    10.00       10.00       10.00      10.000       9.999       9.991       9.939       9.631       7.943      2.3713E-02
   7    10.00       10.00       10.00      10.000       9.999       9.991       9.939       9.631       7.943      2.3713E-02
   8    10.00       10.00       10.00      10.000       9.999       9.991       9.939       9.631       7.943      2.3713E-02
   9    10.00       10.00       10.00      10.000       9.999       9.991       9.939       9.631       7.943      2.3713E-02
  10    10.00       10.00       10.00      10.000       9.999       9.991       9.939       9.631       7.943      2.3713E-02
1
              HEAD IN LAYER   4 AT END OF TIME STEP   4 IN STRESS PERIOD    2
  ---------------------------------------------------------------------------

            1           2           3           4           5           6           7           8           9          10
 ........................................................................................................................
   1    10.00       10.00       10.00      10.000       9.998       9.990       9.933       9.600       7.814      2.3414E-02
   2    10.00       10.00       10.00      10.000       9.998       9.990       9.933       9.600       7.814      2.3414E-02
   3    10.00       10.00       10.00      10.000       9.998       9.990       9.933       9.600       7.814      2.3414E-02
   4    10.00       10.00       10.00      10.000       9.998       9.990       9.933       9.600       7.814      2.3414E-02
   5    10.00       10.00       10.00      10.000       9.998       9.990       9.933       9.600       7.814      2.3414E-02
   6    10.00       10.00       10.00      10.000       9.998       9.990       9.933       9.600       7.814      2.3414E-02
   7    10.00       10.00       10.00      10.000       9.998       9.990       9.933       9.600       7.814      2.3414E-02
   8    10.00       10.00       10.00      10.000       9.998       9.990       9.933       9.600       7.814      2.3414E-02
   9    10.00       10.00       10.00      10.000       9.998       9.990       9.933       9.600       7.814      2.3414E-02
  10    10.00       10.00       10.00      10.000       9.998       9.990       9.933       9.600       7.814      2.3414E-02

 HEAD WILL BE SAVED ON UNIT   51 AT END OF TIME STEP    4, STRESS PERIOD    2

 DRAWDOWN WILL BE SAVED ON UNIT   52 AT END OF TIME STEP    4, STRESS PERIOD    2
1
  VOLUMETRIC BUDGET FOR ENTIRE MODEL AT END OF TIME STEP    4, STRESS PERIOD   2
  ------------------------------------------------------------------------------

     CUMULATIVE VOLUMES      L**3       RATES FOR THIS TIME STEP      L**3/T
     ------------------                 ------------------------

           IN:                                      IN:
           ---                                      ---
             STORAGE =      122088.5234               STORAGE =        4488.4565
       CONSTANT HEAD =           0.0000         CONSTANT HEAD =           0.0000
               WELLS =           0.0000                 WELLS =           0.0000
     HEAD DEP BOUNDS =       3.0711E-03       HEAD DEP BOUNDS =       1.9334E-03

            TOTAL IN =      122088.5234              TOTAL IN =        4488.4585

          OUT:                                     OUT:
          ----                                     ----
             STORAGE =           0.0000               STORAGE =           0.0000
       CONSTANT HEAD =           0.0000         CONSTANT HEAD =           0.0000
               WELLS =           0.0000                 WELLS =           0.0000
     HEAD DEP BOUNDS =      122088.5234       HEAD DEP BOUNDS =        4488.4531

           TOTAL OUT =      122088.5234             TOTAL OUT =        4488.4531

            IN - OUT =           0.0000              IN - OUT =       5.3711E-03

 PERCENT DISCREPANCY =           0.00     PERCENT DISCREPANCY =           0.00






         TIME SUMMARY AT END OF TIME STEP    4 IN STRESS PERIOD    2
                    SECONDS     MINUTES      HOURS       DAYS        YEARS
                    -----------------------------------------------------------
   TIME STEP LENGTH  86400.      1440.0      24.000      1.0000     2.73785E-03
 STRESS PERIOD TIME 3.45600E+05  5760.0      96.000      4.0000     1.09514E-02
         TOTAL TIME 4.32000E+05  7200.0      120.00      5.0000     1.36893E-02
1
 
 SOLVING FOR HEAD 

 OUTPUT CONTROL FOR STRESS PERIOD    2   TIME STEP    5
    SAVE HEAD FOR ALL LAYERS
    SAVE DRAWDOWN FOR ALL LAYERS
    SAVE BUDGET
    PRINT HEAD FOR ALL LAYERS
    PRINT BUDGET
 UBDSV1 SAVING "         STORAGE" ON UNIT  53 AT TIME STEP  5, STRESS PERIOD   2
 UBDSV2 SAVING "   CONSTANT HEAD" ON UNIT  53 AT TIME STEP  5, STRESS PERIOD   2
 UBDSV1 SAVING "FLOW RIGHT FACE " ON UNIT  53 AT TIME STEP  5, STRESS PERIOD   2
 UBDSV1 SAVING "FLOW FRONT FACE " ON UNIT  53 AT TIME STEP  5, STRESS PERIOD   2
 UBDSV1 SAVING "FLOW LOWER FACE " ON UNIT  53 AT TIME STEP  5, STRESS PERIOD   2
1
              HEAD IN LAYER   1 AT END OF TIME STEP   5 IN STRESS PERIOD    2
  ---------------------------------------------------------------------------

            1           2           3           4           5           6           7           8           9          10
 ........................................................................................................................
   1    10.00       10.00       10.00      10.000       9.999       9.992       9.950       9.698       8.301      1.4519E-02
   2    10.00       10.00       10.00      10.000       9.999       9.992       9.950       9.698       8.301      1.4519E-02
   3    10.00       10.00       10.00      10.000       9.999       9.992       9.950       9.698       8.301      1.4519E-02
   4    10.00       10.00       10.00      10.000       9.999       9.992       9.950       9.698       8.301      1.4519E-02
   5    10.00       10.00       10.00      10.000       9.999       9.992       9.950       9.698       8.301      1.4519E-02
   6    10.00       10.00       10.00      10.000       9.999       9.992       9.950       9.698       8.301      1.4519E-02
   7    10.00       10.00       10.00      10.000       9.999       9.992       9.950       9.698       8.301      1.4519E-02
   8    10.00       10.00       10.00      10.000       9.999       9.992       9.950       9.698       8.301      1.4519E-02
   9    10.00       10.00       10.00      10.000       9.999       9.992       9.950       9.698       8.301      1.4519E-02
  10    10.00       10.00       10.00      10.000       9.999       9.992       9.950       9.698       8.301      1.4519E-02
1
              HEAD IN LAYER   2 AT END OF TIME STEP   5 IN STRESS PERIOD    2
  ---------------------------------------------------------------------------

            1           2           3           4           5           6           7           8           9          10
 ........................................................................................................................
   1    10.00       10.00       10.00      10.000       9.998       9.989       9.931       9.607       7.941      2.2290E-02
   2    10.00       10.00       10.00      10.000       9.998       9.989       9.931       9.607       7.941      2.2290E-02
   3    10.00       10.00       10.00      10.000       9.998       9.989       9.931       9.607       7.941      2.2290E-02
   4    10.00       10.00       10.00      10.000       9.998       9.989       9.931       9.607       7.941      2.2290E-02
   5    10.00       10.00       10.00      10.000       9.998       9.989       9.931       9.607       7.941      2.2290E-02
   6    10.00       10.00       10.00      10.000       9.998       9.989       9.931       9.607       7.941      2.2290E-02
   7    10.00       10.00       10.00      10.000       9.998       9.989       9.931       9.607       7.941      2.2290E-02
   8    10.00       10.00       10.00      10.000       9.998       9.989       9.931       9.607       7.941      2.2290E-02
   9    10.00       10.00       10.00      10.000       9.998       9.989       9.931       9.607       7.941      2.2290E-02
  10    10.00       10.00       10.00      10.000       9.998       9.989       9.931       9.607       7.941      2.2290E-02
1
              HEAD IN LAYER   3 AT END OF TIME STEP   5 IN STRESS PERIOD    2
  ---------------------------------------------------------------------------

            1           2           3           4           5           6           7           8           9          10
 ........................................................................................................................
   1    10.00       10.00       10.00      10.000       9.998       9.986       9.918       9.543       7.695      2.2906E-02
   2    10.00       10.00       10.00      10.000       9.998       9.986       9.918       9.543       7.695      2.2906E-02
   3    10.00       10.00       10.00      10.000       9.998       9.986       9.918       9.543       7.695      2.2906E-02
   4    10.00       10.00       10.00      10.000       9.998       9.986       9.918       9.543       7.695      2.2906E-02
   5    10.00       10.00       10.00      10.000       9.998       9.986       9.918       9.543       7.695      2.2906E-02
   6    10.00       10.00       10.00      10.000       9.998       9.986       9.918       9.543       7.695      2.2906E-02
   7    10.00       10.00       10.00      10.000       9.998       9.986       9.918       9.543       7.695      2.2906E-02
   8    10.00       10.00       10.00      10.000       9.998       9.986       9.918       9.543       7.695      2.2906E-02
   9    10.00       10.00       10.00      10.000       9.998       9.986       9.918       9.543       7.695      2.2906E-02
  10    10.00       10.00       10.00      10.000       9.998       9.986       9.918       9.543       7.695      2.2906E-02
1
              HEAD IN LAYER   4 AT END OF TIME STEP   5 IN STRESS PERIOD    2
  ---------------------------------------------------------------------------

            1           2           3           4           5           6           7           8           9          10
 ........................................................................................................................
   1    10.00       10.00      10.000      10.000       9.998       9.985       9.911       9.511       7.574      2.2685E-02
   2    10.00       10.00      10.000      10.000       9.998       9.985       9.911       9.511       7.574      2.2685E-02
   3    10.00       10.00      10.000      10.000       9.998       9.985       9.911       9.511       7.574      2.2685E-02
   4    10.00       10.00      10.000      10.000       9.998       9.985       9.911       9.511       7.574      2.2685E-02
   5    10.00       10.00      10.000      10.000       9.998       9.985       9.911       9.511       7.574      2.2685E-02
   6    10.00       10.00      10.000      10.000       9.998       9.985       9.911       9.511       7.574      2.2685E-02
   7    10.00       10.00      10.000      10.000       9.998       9.985       9.911       9.511       7.574      2.2685E-02
   8    10.00       10.00      10.000      10.000       9.998       9.985       9.911       9.511       7.574      2.2685E-02
   9    10.00       10.00      10.000      10.000       9.998       9.985       9.911       9.511       7.574      2.2685E-02
  10    10.00       10.00      10.000      10.000       9.998       9.985       9.911       9.511       7.574      2.2685E-02

 HEAD WILL BE SAVED ON UNIT   51 AT END OF TIME STEP    5, STRESS PERIOD    2

 DRAWDOWN WILL BE SAVED ON UNIT   52 AT END OF TIME STEP    5, STRESS PERIOD    2
1
  VOLUMETRIC BUDGET FOR ENTIRE MODEL AT END OF TIME STEP    5, STRESS PERIOD   2
  ------------------------------------------------------------------------------

     CUMULATIVE VOLUMES      L**3       RATES FOR THIS TIME STEP      L**3/T
     ------------------                 ------------------------

           IN:                                      IN:
           ---                                      ---
             STORAGE =      126208.4766               STORAGE =        4119.9526
       CONSTANT HEAD =           0.0000         CONSTANT HEAD =           0.0000
               WELLS =           0.0000                 WELLS =           0.0000
     HEAD DEP BOUNDS =       6.6470E-03       HEAD DEP BOUNDS =       3.5759E-03

            TOTAL IN =      126208.4844              TOTAL IN =        4119.9561

          OUT:                                     OUT:
          ----                                     ----
             STORAGE =           0.0000               STORAGE =           0.0000
       CONSTANT HEAD =           0.0000         CONSTANT HEAD =           0.0000
               WELLS =           0.0000                 WELLS =           0.0000
     HEAD DEP BOUNDS =      126208.4922       HEAD DEP BOUNDS =        4119.9683

           TOTAL OUT =      126208.4922             TOTAL OUT =        4119.9683

            IN - OUT =      -7.8125E-03              IN - OUT =      -1.2207E-02

 PERCENT DISCREPANCY =          -0.00     PERCENT DISCREPANCY =          -0.00






         TIME SUMMARY AT END OF TIME STEP    5 IN STRESS PERIOD    2
                    SECONDS     MINUTES      HOURS       DAYS        YEARS
                    -----------------------------------------------------------
   TIME STEP LENGTH  86400.      1440.0      24.000      1.0000     2.73785E-03
 STRESS PERIOD TIME 4.32000E+05  7200.0      120.00      5.0000     1.36893E-02
         TOTAL TIME 5.18400E+05  8640.0      144.00      6.0000     1.64271E-02
1
 
 SOLVING FOR HEAD 

 OUTPUT CONTROL FOR STRESS PERIOD    2   TIME STEP    6
    SAVE HEAD FOR ALL LAYERS
    SAVE DRAWDOWN FOR ALL LAYERS
    SAVE BUDGET
    PRINT HEAD FOR ALL LAYERS
    PRINT BUDGET
 UBDSV1 SAVING "         STORAGE" ON UNIT  53 AT TIME STEP  6, STRESS PERIOD   2
 UBDSV2 SAVING "   CONSTANT HEAD" ON UNIT  53 AT TIME STEP  6, STRESS PERIOD   2
 UBDSV1 SAVING "FLOW RIGHT FACE " ON UNIT  53 AT TIME STEP  6, STRESS PERIOD   2
 UBDSV1 SAVING "FLOW FRONT FACE " ON UNIT  53 AT TIME STEP  6, STRESS PERIOD   2
 UBDSV1 SAVING "FLOW LOWER FACE " ON UNIT  53 AT TIME STEP  6, STRESS PERIOD   2
1
              HEAD IN LAYER   1 AT END OF TIME STEP   6 IN STRESS PERIOD    2
  ---------------------------------------------------------------------------

            1           2           3           4           5           6           7           8           9          10
 ........................................................................................................................
   1    10.00       10.00       10.00      10.000       9.998       9.989       9.932       9.616       8.027      1.3433E-02
   2    10.00       10.00       10.00      10.000       9.998       9.989       9.932       9.616       8.027      1.3433E-02
   3    10.00       10.00       10.00      10.000       9.998       9.989       9.932       9.616       8.027      1.3433E-02
   4    10.00       10.00       10.00      10.000       9.998       9.989       9.932       9.616       8.027      1.3433E-02
   5    10.00       10.00       10.00      10.000       9.998       9.989       9.932       9.616       8.027      1.3433E-02
   6    10.00       10.00       10.00      10.000       9.998       9.989       9.932       9.616       8.027      1.3433E-02
   7    10.00       10.00       10.00      10.000       9.998       9.989       9.932       9.616       8.027      1.3433E-02
   8    10.00       10.00       10.00      10.000       9.998       9.989       9.932       9.616       8.027      1.3433E-02
   9    10.00       10.00       10.00      10.000       9.998       9.989       9.932       9.616       8.027      1.3433E-02
  10    10.00       10.00       10.00      10.000       9.998       9.989       9.932       9.616       8.027      1.3433E-02
1
              HEAD IN LAYER   2 AT END OF TIME STEP   6 IN STRESS PERIOD    2
  ---------------------------------------------------------------------------

            1           2           3           4           5           6           7           8           9          10
 ........................................................................................................................
   1    10.00       10.00      10.000      10.000       9.997       9.984       9.910       9.520       7.694      2.1500E-02
   2    10.00       10.00      10.000      10.000       9.997       9.984       9.910       9.520       7.694      2.1500E-02
   3    10.00       10.00      10.000      10.000       9.997       9.984       9.910       9.520       7.694      2.1500E-02
   4    10.00       10.00      10.000      10.000       9.997       9.984       9.910       9.520       7.694      2.1500E-02
   5    10.00       10.00      10.000      10.000       9.997       9.984       9.910       9.520       7.694      2.1500E-02
   6    10.00       10.00      10.000      10.000       9.997       9.984       9.910       9.520       7.694      2.1500E-02
   7    10.00       10.00      10.000      10.000       9.997       9.984       9.910       9.520       7.694      2.1500E-02
   8    10.00       10.00      10.000      10.000       9.997       9.984       9.910       9.520       7.694      2.1500E-02
   9    10.00       10.00      10.000      10.000       9.997       9.984       9.910       9.520       7.694      2.1500E-02
  10    10.00       10.00      10.000      10.000       9.997       9.984       9.910       9.520       7.694      2.1500E-02
1
              HEAD IN LAYER   3 AT END OF TIME STEP   6 IN STRESS PERIOD    2
  ---------------------------------------------------------------------------

[...]
             STORAGE =       17071.3281               STORAGE =          70.5972
       CONSTANT HEAD =           0.0000         CONSTANT HEAD =           0.0000
               WELLS =      100000.0000                 WELLS =           0.0000
     HEAD DEP BOUNDS =      562610.5625       HEAD DEP BOUNDS =         588.5096

           TOTAL OUT =      679681.8750             TOTAL OUT =         659.1068

            IN - OUT =          -1.5000              IN - OUT =       5.9814E-03

 PERCENT DISCREPANCY =          -0.00     PERCENT DISCREPANCY =           0.00






         TIME SUMMARY AT END OF TIME STEP   98 IN STRESS PERIOD    5
                    SECONDS     MINUTES      HOURS       DAYS        YEARS
                    -----------------------------------------------------------
   TIME STEP LENGTH  86400.      1440.0      24.000      1.0000     2.73785E-03
 STRESS PERIOD TIME 8.46720E+06 1.41120E+05  2352.0      98.000     0.26831    
         TOTAL TIME 3.44736E+07 5.74560E+05  9576.0      399.00      1.0924    
1
 
 SOLVING FOR HEAD 

 OUTPUT CONTROL FOR STRESS PERIOD    5   TIME STEP   99
    SAVE HEAD FOR ALL LAYERS
    SAVE DRAWDOWN FOR ALL LAYERS
    SAVE BUDGET
    PRINT HEAD FOR ALL LAYERS
    PRINT BUDGET
 UBDSV1 SAVING "         STORAGE" ON UNIT  53 AT TIME STEP 99, STRESS PERIOD   5
 UBDSV2 SAVING "   CONSTANT HEAD" ON UNIT  53 AT TIME STEP 99, STRESS PERIOD   5
 UBDSV1 SAVING "FLOW RIGHT FACE " ON UNIT  53 AT TIME STEP 99, STRESS PERIOD   5
 UBDSV1 SAVING "FLOW FRONT FACE " ON UNIT  53 AT TIME STEP 99, STRESS PERIOD   5
 UBDSV1 SAVING "FLOW LOWER FACE " ON UNIT  53 AT TIME STEP 99, STRESS PERIOD   5
1
              HEAD IN LAYER   1 AT END OF TIME STEP  99 IN STRESS PERIOD    5
  ---------------------------------------------------------------------------

            1           2           3           4           5           6           7           8           9          10
 ........................................................................................................................
   1    9.997       8.909       7.808       6.705       5.604       4.506       3.406       2.294       1.162      1.5998E-03
   2    9.997       8.904       7.798       6.691       5.588       4.490       3.391       2.283       1.157      1.5914E-03
   3    9.997       8.896       7.784       6.671       5.565       4.466       3.370       2.268       1.148      1.5793E-03
   4    9.997       8.891       7.774       6.657       5.548       4.449       3.355       2.257       1.142      1.5705E-03
   5    9.997       8.892       7.776       6.659       5.551       4.452       3.358       2.259       1.143      1.5722E-03
   6    9.997       8.901       7.793       6.684       5.579       4.480       3.383       2.277       1.153      1.5869E-03
   7    9.997       8.917       7.824       6.726       5.628       4.530       3.427       2.310       1.171      1.6126E-03
   8    9.997       8.936       7.860       6.775       5.685       4.588       3.478       2.348       1.192      1.6427E-03
   9    9.997       8.952       7.891       6.818       5.735       4.638       3.523       2.382       1.210      1.6689E-03
  10    9.997       8.961       7.909       6.843       5.763       4.667       3.548       2.401       1.220      1.6841E-03
1
              HEAD IN LAYER   2 AT END OF TIME STEP  99 IN STRESS PERIOD    5
  ---------------------------------------------------------------------------

            1           2           3           4           5           6           7           8           9          10
 ........................................................................................................................
   1    9.997       8.908       7.807       6.704       5.603       4.505       3.404       2.293       1.161      3.1888E-03
   2    9.997       8.903       7.798       6.691       5.588       4.489       3.390       2.282       1.155      3.1734E-03
   3    9.997       8.896       7.784       6.671       5.565       4.467       3.370       2.267       1.147      3.1510E-03
   4    9.997       8.891       7.774       6.658       5.549       4.450       3.356       2.256       1.142      3.1352E-03
   5    9.997       8.892       7.776       6.661       5.553       4.453       3.359       2.259       1.143      3.1384E-03
   6    9.997       8.901       7.794       6.685       5.580       4.481       3.383       2.277       1.153      3.1660E-03
   7    9.997       8.917       7.824       6.726       5.628       4.530       3.426       2.309       1.170      3.2139E-03
   8    9.997       8.935       7.859       6.774       5.684       4.587       3.477       2.347       1.190      3.2698E-03
   9    9.997       8.951       7.889       6.816       5.733       4.636       3.520       2.380       1.208      3.3186E-03
  10    9.997       8.960       7.907       6.841       5.761       4.664       3.546       2.398       1.218      3.3467E-03
1
              HEAD IN LAYER   3 AT END OF TIME STEP  99 IN STRESS PERIOD    5
  ---------------------------------------------------------------------------

            1           2           3           4           5           6           7           8           9          10
 ........................................................................................................................
   1    9.997       8.907       7.807       6.703       5.603       4.504       3.403       2.291       1.160      3.4386E-03
   2    9.997       8.902       7.797       6.690       5.587       4.489       3.390       2.281       1.154      3.4224E-03
   3    9.997       8.895       7.784       6.672       5.566       4.467       3.370       2.267       1.146      3.3991E-03
   4    9.997       8.891       7.775       6.659       5.551       4.451       3.356       2.256       1.141      3.3827E-03
   5    9.997       8.892       7.777       6.662       5.554       4.455       3.359       2.259       1.142      3.3863E-03
   6    9.997       8.901       7.794       6.686       5.581       4.482       3.384       2.277       1.152      3.4156E-03
   7    9.997       8.916       7.824       6.726       5.628       4.530       3.426       2.308       1.169      3.4663E-03
   8    9.997       8.934       7.858       6.774       5.683       4.586       3.476       2.345       1.189      3.5255E-03
   9    9.997       8.950       7.888       6.815       5.731       4.634       3.518       2.378       1.206      3.5770E-03
  10    9.997       8.959       7.906       6.839       5.759       4.662       3.543       2.396       1.216      3.6068E-03
1
              HEAD IN LAYER   4 AT END OF TIME STEP  99 IN STRESS PERIOD    5
  ---------------------------------------------------------------------------

            1           2           3           4           5           6           7           8           9          10
 ........................................................................................................................
   1    9.997       8.907       7.806       6.703       5.602       4.504       3.403       2.291       1.159      3.4633E-03
   2    9.997       8.902       7.797       6.690       5.587       4.489       3.389       2.281       1.154      3.4472E-03
   3    9.997       8.895       7.784       6.672       5.566       4.467       3.370       2.266       1.146      3.4241E-03
   4    9.997       8.890       7.775       6.659       5.551       4.452       3.357       2.256       1.140      3.4079E-03
   5    9.997       8.892       7.777       6.662       5.555       4.455       3.360       2.258       1.142      3.4116E-03
   6    9.997       8.901       7.794       6.686       5.582       4.483       3.384       2.277       1.152      3.4410E-03
   7    9.997       8.916       7.824       6.726       5.628       4.530       3.426       2.308       1.168      3.4916E-03
   8    9.997       8.934       7.858       6.773       5.683       4.585       3.475       2.345       1.188      3.5507E-03
   9    9.997       8.949       7.888       6.814       5.730       4.633       3.517       2.377       1.205      3.6022E-03
  10    9.997       8.958       7.905       6.838       5.758       4.661       3.542       2.395       1.215      3.6319E-03

 HEAD WILL BE SAVED ON UNIT   51 AT END OF TIME STEP   99, STRESS PERIOD    5

 DRAWDOWN WILL BE SAVED ON UNIT   52 AT END OF TIME STEP   99, STRESS PERIOD    5
1
  VOLUMETRIC BUDGET FOR ENTIRE MODEL AT END OF TIME STEP   99, STRESS PERIOD   5
  ------------------------------------------------------------------------------

     CUMULATIVE VOLUMES      L**3       RATES FOR THIS TIME STEP      L**3/T
     ------------------                 ------------------------

           IN:                                      IN:
           ---                                      ---
             STORAGE =      534294.7500               STORAGE =          14.9866
       CONSTANT HEAD =           0.0000         CONSTANT HEAD =           0.0000
               WELLS =           0.0000                 WELLS =           0.0000
     HEAD DEP BOUNDS =      146043.9219       HEAD DEP BOUNDS =         643.3076

            TOTAL IN =      680338.6875              TOTAL IN =         658.2941

          OUT:                                     OUT:
          ----                                     ----
             STORAGE =       17141.1191               STORAGE =          69.7911
       CONSTANT HEAD =           0.0000         CONSTANT HEAD =           0.0000
               WELLS =      100000.0000                 WELLS =           0.0000
     HEAD DEP BOUNDS =      563199.0625       HEAD DEP BOUNDS =         588.5097

           TOTAL OUT =      680340.1875             TOTAL OUT =         658.3008

            IN - OUT =          -1.5000              IN - OUT =      -6.7139E-03

 PERCENT DISCREPANCY =          -0.00     PERCENT DISCREPANCY =          -0.00






         TIME SUMMARY AT END OF TIME STEP   99 IN STRESS PERIOD    5
                    SECONDS     MINUTES      HOURS       DAYS        YEARS
                    -----------------------------------------------------------
   TIME STEP LENGTH  86400.      1440.0      24.000      1.0000     2.73785E-03
 STRESS PERIOD TIME 8.55360E+06 1.42560E+05  2376.0      99.000     0.27105    
         TOTAL TIME 3.45600E+07 5.76000E+05  9600.0      400.00      1.0951    
1
 
 SOLVING FOR HEAD 

 OUTPUT CONTROL FOR STRESS PERIOD    5   TIME STEP  100
    SAVE HEAD FOR ALL LAYERS
    SAVE DRAWDOWN FOR ALL LAYERS
    SAVE BUDGET
    PRINT HEAD FOR ALL LAYERS
    PRINT BUDGET
 UBDSV1 SAVING "         STORAGE" ON UNIT  53 AT TIME STEP100, STRESS PERIOD   5
 UBDSV2 SAVING "   CONSTANT HEAD" ON UNIT  53 AT TIME STEP100, STRESS PERIOD   5
 UBDSV1 SAVING "FLOW RIGHT FACE " ON UNIT  53 AT TIME STEP100, STRESS PERIOD   5
 UBDSV1 SAVING "FLOW FRONT FACE " ON UNIT  53 AT TIME STEP100, STRESS PERIOD   5
 UBDSV1 SAVING "FLOW LOWER FACE " ON UNIT  53 AT TIME STEP100, STRESS PERIOD   5
1
              HEAD IN LAYER   1 AT END OF TIME STEP 100 IN STRESS PERIOD    5
  ---------------------------------------------------------------------------

            1           2           3           4           5           6           7           8           9          10
 ........................................................................................................................
   1    9.997       8.909       7.808       6.705       5.604       4.506       3.406       2.294       1.162      1.5996E-03
   2    9.997       8.904       7.799       6.692       5.589       4.491       3.392       2.283       1.157      1.5914E-03
   3    9.997       8.897       7.785       6.673       5.566       4.468       3.371       2.268       1.148      1.5795E-03
   4    9.997       8.892       7.775       6.659       5.551       4.452       3.357       2.258       1.143      1.5712E-03
   5    9.997       8.893       7.778       6.662       5.554       4.455       3.360       2.260       1.144      1.5730E-03
   6    9.997       8.902       7.795       6.686       5.581       4.483       3.385       2.278       1.154      1.5875E-03
   7    9.997       8.918       7.825       6.727       5.629       4.531       3.428       2.310       1.171      1.6127E-03
   8    9.997       8.936       7.860       6.776       5.685       4.588       3.478       2.348       1.192      1.6424E-03
   9    9.997       8.952       7.891       6.818       5.734       4.637       3.522       2.381       1.209      1.6681E-03
  10    9.997       8.961       7.908       6.842       5.762       4.665       3.547       2.400       1.220      1.6830E-03
1
              HEAD IN LAYER   2 AT END OF TIME STEP 100 IN STRESS PERIOD    5
  ---------------------------------------------------------------------------

            1           2           3           4           5           6           7           8           9          10
 ........................................................................................................................
   1    9.997       8.908       7.808       6.704       5.604       4.505       3.404       2.292       1.161      3.1883E-03
   2    9.997       8.903       7.798       6.692       5.589       4.490       3.391       2.282       1.155      3.1733E-03
   3    9.997       8.896       7.785       6.673       5.567       4.468       3.371       2.268       1.147      3.1516E-03
   4    9.997       8.892       7.776       6.660       5.552       4.453       3.358       2.257       1.142      3.1365E-03
   5    9.997       8.893       7.778       6.663       5.555       4.456       3.361       2.260       1.143      3.1399E-03
   6    9.997       8.902       7.795       6.687       5.583       4.484       3.385       2.278       1.153      3.1671E-03
   7    9.997       8.917       7.825       6.728       5.630       4.531       3.427       2.310       1.170      3.2142E-03
   8    9.997       8.935       7.859       6.775       5.684       4.587       3.477       2.347       1.190      3.2692E-03
   9    9.997       8.950       7.889       6.816       5.732       4.635       3.519       2.379       1.207      3.3171E-03
  10    9.997       8.959       7.906       6.840       5.760       4.663       3.544       2.397       1.217      3.3447E-03
1
              HEAD IN LAYER   3 AT END OF TIME STEP 100 IN STRESS PERIOD    5
  ---------------------------------------------------------------------------

            1           2           3           4           5           6           7           8           9          10
 ........................................................................................................................
   1    9.997       8.907       7.807       6.704       5.603       4.504       3.403       2.291       1.159      3.4380E-03
   2    9.997       8.903       7.798       6.692       5.589       4.490       3.390       2.281       1.154      3.4223E-03
   3    9.997       8.896       7.785       6.674       5.568       4.468       3.371       2.267       1.147      3.3997E-03
   4    9.997       8.891       7.776       6.661       5.553       4.454       3.358       2.257       1.141      3.3840E-03
   5    9.997       8.893       7.779       6.664       5.557       4.457       3.361       2.260       1.143      3.3879E-03
   6    9.997       8.902       7.796       6.688       5.584       4.484       3.385       2.278       1.152      3.4169E-03
   7    9.997       8.917       7.825       6.728       5.630       4.531       3.427       2.309       1.169      3.4667E-03
   8    9.997       8.934       7.859       6.774       5.684       4.586       3.475       2.345       1.189      3.5248E-03
   9    9.997       8.950       7.888       6.815       5.731       4.633       3.518       2.377       1.206      3.5754E-03
  10    9.997       8.958       7.905       6.838       5.758       4.661       3.542       2.395       1.216      3.6047E-03
1
              HEAD IN LAYER   4 AT END OF TIME STEP 100 IN STRESS PERIOD    5
  ---------------------------------------------------------------------------

            1           2           3           4           5           6           7           8           9          10
 ........................................................................................................................
   1    9.997       8.907       7.807       6.704       5.603       4.504       3.403       2.290       1.159      3.4627E-03
   2    9.997       8.902       7.798       6.691       5.588       4.490       3.390       2.281       1.154      3.4471E-03
   3    9.997       8.896       7.785       6.674       5.568       4.469       3.371       2.267       1.146      3.4247E-03
   4    9.997       8.891       7.777       6.662       5.554       4.454       3.358       2.257       1.141      3.4092E-03
   5    9.997       8.893       7.779       6.665       5.557       4.458       3.362       2.260       1.142      3.4132E-03
   6    9.997       8.902       7.796       6.688       5.584       4.485       3.386       2.278       1.152      3.4422E-03
   7    9.997       8.917       7.825       6.728       5.630       4.531       3.427       2.309       1.169      3.4920E-03
   8    9.997       8.934       7.858       6.774       5.683       4.585       3.475       2.344       1.188      3.5501E-03
   9    9.997       8.949       7.887       6.814       5.730       4.632       3.517       2.376       1.205      3.6006E-03
  10    9.997       8.958       7.904       6.837       5.757       4.660       3.541       2.394       1.215      3.6298E-03

 HEAD WILL BE SAVED ON UNIT   51 AT END OF TIME STEP  100, STRESS PERIOD    5

 DRAWDOWN WILL BE SAVED ON UNIT   52 AT END OF TIME STEP  100, STRESS PERIOD    5
1
  VOLUMETRIC BUDGET FOR ENTIRE MODEL AT END OF TIME STEP  100, STRESS PERIOD   5
  ------------------------------------------------------------------------------

     CUMULATIVE VOLUMES      L**3       RATES FOR THIS TIME STEP      L**3/T
     ------------------                 ------------------------

           IN:                                      IN:
           ---                                      ---
             STORAGE =      534309.2500               STORAGE =          14.4715
       CONSTANT HEAD =           0.0000         CONSTANT HEAD =           0.0000
               WELLS =           0.0000                 WELLS =           0.0000
     HEAD DEP BOUNDS =      146686.9531       HEAD DEP BOUNDS =         643.0327

            TOTAL IN =      680996.1875              TOTAL IN =         657.5042

          OUT:                                     OUT:
          ----                                     ----
             STORAGE =       17210.1074               STORAGE =          68.9891
       CONSTANT HEAD =           0.0000         CONSTANT HEAD =           0.0000
               WELLS =      100000.0000                 WELLS =           0.0000
     HEAD DEP BOUNDS =      563787.5625       HEAD DEP BOUNDS =         588.5126

           TOTAL OUT =      680997.6875             TOTAL OUT =         657.5017

            IN - OUT =          -1.5000              IN - OUT =       2.5024E-03

 PERCENT DISCREPANCY =          -0.00     PERCENT DISCREPANCY =           0.00






         TIME SUMMARY AT END OF TIME STEP  100 IN STRESS PERIOD    5
                    SECONDS     MINUTES      HOURS       DAYS        YEARS
                    -----------------------------------------------------------
   TIME STEP LENGTH  86400.      1440.0      24.000      1.0000     2.73785E-03
 STRESS PERIOD TIME 8.64000E+06 1.44000E+05  2400.0      100.00     0.27379    
         TOTAL TIME 3.46464E+07 5.77440E+05  9624.0      401.00      1.0979    
1

 Run end date and time (yyyy/mm/dd hh:mm:ss): 2019/07/16 11:34:20
 Elapsed run time:  0.723 Seconds

