                                  MODFLOW-2005     
      U.S. GEOLOGICAL SURVEY MODULAR FINITE-DIFFERENCE GROUND-WATER FLOW MODEL
                            VERSION 1.12.00 2/3/2017

 LIST FILE: D:/Chelsea/Projects/DelawareStream/FloPy/Tutorial02wMT3DMS3/Tutorial02wMT3DMS3.list
                         UNIT    2

 OPENING D:/Chelsea/Projects/DelawareStream/FloPy/Tutorial02wMT3DMS3/Tutorial02wMT3DMS3.dis
 FILE TYPE:DIS   UNIT   11   STATUS:OLD    
 FORMAT:FORMATTED              ACCESS:SEQUENTIAL          

 OPENING D:/Chelsea/Projects/DelawareStream/FloPy/Tutorial02wMT3DMS3/Tutorial02wMT3DMS3.bas
 FILE TYPE:BAS6   UNIT   13   STATUS:OLD    
 FORMAT:FORMATTED              ACCESS:SEQUENTIAL          

 OPENING D:/Chelsea/Projects/DelawareStream/FloPy/Tutorial02wMT3DMS3/Tutorial02wMT3DMS3.lpf
 FILE TYPE:LPF   UNIT   15   STATUS:OLD    
 FORMAT:FORMATTED              ACCESS:SEQUENTIAL          

 OPENING D:/Chelsea/Projects/DelawareStream/FloPy/Tutorial02wMT3DMS3/Tutorial02wMT3DMS3.wel
 FILE TYPE:WEL   UNIT   20   STATUS:OLD    
 FORMAT:FORMATTED              ACCESS:SEQUENTIAL          

 OPENING D:/Chelsea/Projects/DelawareStream/FloPy/Tutorial02wMT3DMS3/Tutorial02wMT3DMS3.rch
 FILE TYPE:RCH   UNIT   19   STATUS:OLD    
 FORMAT:FORMATTED              ACCESS:SEQUENTIAL          

 OPENING D:/Chelsea/Projects/DelawareStream/FloPy/Tutorial02wMT3DMS3/Tutorial02wMT3DMS3.pcg
 FILE TYPE:PCG   UNIT   27   STATUS:OLD    
 FORMAT:FORMATTED              ACCESS:SEQUENTIAL          

 OPENING D:/Chelsea/Projects/DelawareStream/FloPy/Tutorial02wMT3DMS3/Tutorial02wMT3DMS3.lmt6
 FILE TYPE:LMT6   UNIT   30   STATUS:OLD    
 FORMAT:FORMATTED              ACCESS:SEQUENTIAL          

 BAS -- BASIC PACKAGE, VERSION 7, 5/2/2005 INPUT READ FROM UNIT   13
 
 MODFLOW was compiled using mixed precision
 Precision of REAL variables:           6
 Precision of DOUBLE PRECISION variables:          15

 DISCRETIZATION INPUT DATA READ FROM UNIT   11
 # DIS package for  MODFLOW-2005, generated by Flopy.
    4 LAYERS        61 ROWS        40 COLUMNS
    1 STRESS PERIOD(S) IN SIMULATION
 MODEL TIME UNIT IS DAYS
 MODEL LENGTH UNIT IS METERS
  Confining bed flag for each layer:
   0   0   0   0



                               DELR
 READING ON UNIT   11 WITH FORMAT: (40E15.6)           



                               DELC
 READING ON UNIT   11 WITH FORMAT: (61E15.6)           

 TOP ELEVATION OF LAYER 1 =   780.000    

   MODEL LAYER BOTTOM EL. =   755.000     FOR LAYER   1

   MODEL LAYER BOTTOM EL. =   730.000     FOR LAYER   2

   MODEL LAYER BOTTOM EL. =   705.000     FOR LAYER   3

   MODEL LAYER BOTTOM EL. =   680.000     FOR LAYER   4


 STRESS PERIOD     LENGTH       TIME STEPS     MULTIPLIER FOR DELT    SS FLAG
 ----------------------------------------------------------------------------
        1         1000.000          1                    1.000         SS

 STEADY-STATE SIMULATION



 
 # BAS6 package for  MODFLOW-2005, generated by Flopy.                           
 THE FREE FORMAT OPTION HAS BEEN SELECTED



                     BOUNDARY ARRAY FOR LAYER   1
 READING ON UNIT   13 WITH FORMAT: (40I10)             



                     BOUNDARY ARRAY FOR LAYER   2
 READING ON UNIT   13 WITH FORMAT: (40I10)             



                     BOUNDARY ARRAY FOR LAYER   3
 READING ON UNIT   13 WITH FORMAT: (40I10)             



                     BOUNDARY ARRAY FOR LAYER   4
 READING ON UNIT   13 WITH FORMAT: (40I10)             

 AQUIFER HEAD WILL BE SET TO  -999.99     AT ALL NO-FLOW NODES (IBOUND=0).



                       INITIAL HEAD FOR LAYER   1
 READING ON UNIT   13 WITH FORMAT: (40E15.6)           



                       INITIAL HEAD FOR LAYER   2
 READING ON UNIT   13 WITH FORMAT: (40E15.6)           



                       INITIAL HEAD FOR LAYER   3
 READING ON UNIT   13 WITH FORMAT: (40E15.6)           



                       INITIAL HEAD FOR LAYER   4
 READING ON UNIT   13 WITH FORMAT: (40E15.6)           

 DEFAULT OUTPUT CONTROL
 THE FOLLOWING OUTPUT COMES AT THE END OF EACH STRESS PERIOD:
 TOTAL VOLUMETRIC BUDGET
           HEAD

 LPF -- LAYER-PROPERTY FLOW PACKAGE, VERSION 7, 5/2/2005
         INPUT READ FROM UNIT   15
 # LPF package for  MODFLOW-2005, generated by Flopy.
 HEAD AT CELLS THAT CONVERT TO DRY= -1.00000E+30
 No named parameters

   LAYER FLAGS:
 LAYER       LAYTYP        LAYAVG         CHANI        LAYVKA        LAYWET
 ---------------------------------------------------------------------------
    1             0             0     1.000E+00             1             0
    2             0             0     1.000E+00             1             0
    3             0             0     1.000E+00             1             0
    4             0             0     1.000E+00             1             0

   INTERPRETATION OF LAYER FLAGS:
                        INTERBLOCK     HORIZONTAL    DATA IN
         LAYER TYPE   TRANSMISSIVITY   ANISOTROPY   ARRAY VKA   WETTABILITY
 LAYER      (LAYTYP)      (LAYAVG)       (CHANI)      (LAYVKA)      (LAYWET)
 ---------------------------------------------------------------------------
    1      CONFINED      HARMONIC     1.000E+00    ANISOTROPY  NON-WETTABLE
    2      CONFINED      HARMONIC     1.000E+00    ANISOTROPY  NON-WETTABLE
    3      CONFINED      HARMONIC     1.000E+00    ANISOTROPY  NON-WETTABLE
    4      CONFINED      HARMONIC     1.000E+00    ANISOTROPY  NON-WETTABLE

 WETTING CAPABILITY IS NOT ACTIVE IN ANY LAYER

    HYD. COND. ALONG ROWS =   60.0000     FOR LAYER   1

  HORIZ. TO VERTICAL ANI. =  0.100000     FOR LAYER   1

    HYD. COND. ALONG ROWS =   60.0000     FOR LAYER   2

  HORIZ. TO VERTICAL ANI. =  0.100000     FOR LAYER   2

    HYD. COND. ALONG ROWS =   520.000     FOR LAYER   3

  HORIZ. TO VERTICAL ANI. =  0.100000     FOR LAYER   3

    HYD. COND. ALONG ROWS =   520.000     FOR LAYER   4

  HORIZ. TO VERTICAL ANI. =  0.100000     FOR LAYER   4

 WEL -- WELL PACKAGE, VERSION 7, 5/2/2005 INPUT READ FROM UNIT   20
 # WEL package for  MODFLOW-2005, generated by Flopy.
 No named parameters
 MAXIMUM OF      8 ACTIVE WELLS AT ONE TIME


     0 Well parameters

 RCH -- RECHARGE PACKAGE, VERSION 7, 5/2/2005 INPUT READ FROM UNIT   19
 # RCH package for  MODFLOW-2005, generated by Flopy.
 No named parameters
 OPTION 3 -- RECHARGE TO HIGHEST ACTIVE NODE IN EACH VERTICAL COLUMN


     0 Recharge parameters

 PCG -- CONJUGATE-GRADIENT SOLUTION PACKAGE, VERSION 7, 5/2/2005
 # PCG package for  MODFLOW-2005, generated by Flopy.
 MAXIMUM OF     50 CALLS OF SOLUTION ROUTINE
 MAXIMUM OF     30 INTERNAL ITERATIONS PER CALL TO SOLUTION ROUTINE
 MATRIX PRECONDITIONING TYPE :    1



                                    SOLUTION BY THE CONJUGATE-GRADIENT METHOD
                                   -------------------------------------------
                    MAXIMUM NUMBER OF CALLS TO PCG ROUTINE =       50
                        MAXIMUM ITERATIONS PER CALL TO PCG =       30
                               MATRIX PRECONDITIONING TYPE =        1
        RELAXATION FACTOR (ONLY USED WITH PRECOND. TYPE 1) =    0.10000E+01
 PARAMETER OF POLYNOMIAL PRECOND. = 2 (2) OR IS CALCULATED :        0
                         HEAD CHANGE CRITERION FOR CLOSURE =    0.10000E-04
                     RESIDUAL CHANGE CRITERION FOR CLOSURE =    0.10000E-04
            PCG HEAD AND RESIDUAL CHANGE PRINTOUT INTERVAL =      999
     PRINTING FROM SOLVER IS LIMITED(1) OR SUPPRESSED (>1) =        3
                            STEADY-STATE DAMPING PARAMETER =    0.10000E+01
                               TRANSIENT DAMPING PARAMETER =    0.10000E+01


 ***Link-MT3DMS Package v7***
 OPENING LINK-MT3DMS OUTPUT FILE: mt3d_link.ftl                                                                                                                                                                                           
 ON UNIT NUMBER:    54
 FILE TYPE: UNFORMATTED
 HEADER OPTION: EXTENDED
 ***Link-MT3DMS Package v7***

1
                            STRESS PERIOD NO.    1, LENGTH =   1000.000    
                            -----------------------------------------------

                              NUMBER OF TIME STEPS =     1

                               MULTIPLIER FOR DELT =     1.000

                            INITIAL TIME STEP SIZE =   1000.000    

 WELL NO.  LAYER   ROW   COL   STRESS RATE         
 --------------------------------------------------
      1      3     11     29     -0.1923E+05
      2      3     19     26     -0.1923E+05
      3      3     26     23     -0.1923E+05
      4      3     33     20     -0.1923E+05
      5      3     40     17     -0.1923E+05
      6      3     48     14     -0.1923E+05
      7      3     48      9     -0.1538E+05
      8      3     52     17     -0.1731E+05

      8 WELLS

                 RECHARGE =  1.140000E-03
 
 SOLVING FOR HEAD 

 SAVING SATURATED THICKNESS AND FLOW TERMS ON UNIT   54 FOR MT3DMS
 BY THE LINK-MT3DMS PACKAGE V7 AT TIME STEP    1, STRESS PERIOD    1

1
              HEAD IN LAYER   1 AT END OF TIME STEP   1 IN STRESS PERIOD    1
  ---------------------------------------------------------------------------

            1           2           3           4           5           6           7           8           9          10
           11          12          13          14          15          16          17          18          19          20
           21          22          23          24          25          26          27          28          29          30
           31          32          33          34          35          36          37          38          39          40
 ........................................................................................................................
   1    0.000      0.2024      0.2753      0.2979      0.3059      0.3090      0.3104      0.3113      0.3121      0.3128    
       0.3135      0.3141      0.3146      0.3150      0.3154      0.3158      0.3160      0.3162      0.3163      0.3164    
       0.3164      0.3163      0.3162      0.3160      0.3157      0.3154      0.3150      0.3145      0.3140      0.3134    
       0.3127      0.3120      0.3112      0.3103      0.3089      0.3057      0.2976      0.2750      0.2021       0.000    
   2    0.000      0.1744      0.2333      0.2510      0.2571      0.2596      0.2606      0.2613      0.2619      0.2624    
       0.2629      0.2634      0.2638      0.2641      0.2644      0.2646      0.2648      0.2650      0.2650      0.2651    
       0.2651      0.2650      0.2649      0.2647      0.2645      0.2642      0.2639      0.2635      0.2631      0.2626    
       0.2621      0.2615      0.2609      0.2602      0.2591      0.2566      0.2503      0.2324      0.1735       0.000    
   3    0.000      0.1086      0.1317      0.1362      0.1374      0.1377      0.1379      0.1380      0.1380      0.1381    
       0.1381      0.1381      0.1381      0.1381      0.1381      0.1381      0.1381      0.1380      0.1380      0.1379    
       0.1379      0.1378      0.1377      0.1376      0.1375      0.1374      0.1373      0.1372      0.1371      0.1369    
       0.1368      0.1366      0.1365      0.1363      0.1360      0.1354      0.1338      0.1287      0.1061       0.000    
   4    0.000      4.0780E-04 -4.8790E-02 -7.4733E-02 -8.6105E-02 -9.1135E-02 -9.3455E-02 -9.4931E-02 -9.6334E-02 -9.7659E-02
      -9.8905E-02 -0.1001     -0.1011     -0.1021     -0.1030     -0.1038     -0.1045     -0.1051     -0.1056     -0.1061    
      -0.1063     -0.1065     -0.1066     -0.1066     -0.1065     -0.1062     -0.1059     -0.1055     -0.1049     -0.1042    
      -0.1035     -0.1026     -0.1016     -0.1006     -9.8838E-02 -9.4818E-02 -8.4843E-02 -5.9421E-02 -6.1407E-03   0.000    
   5    0.000     -9.7794E-02 -0.2392     -0.3165     -0.3526     -0.3692     -0.3771     -0.3822     -0.3870     -0.3917    
      -0.3962     -0.4004     -0.4044     -0.4082     -0.4116     -0.4148     -0.4176     -0.4201     -0.4223     -0.4241    
      -0.4256     -0.4266     -0.4273     -0.4276     -0.4274     -0.4268     -0.4258     -0.4243     -0.4224     -0.4201    
      -0.4174     -0.4143     -0.4107     -0.4068     -0.4004     -0.3857     -0.3498     -0.2652     -0.1073       0.000    
   6    0.000     -0.1467     -0.3468     -0.4662     -0.5269     -0.5566     -0.5711     -0.5806     -0.5900     -0.5992    
      -0.6081     -0.6169     -0.6253     -0.6335     -0.6413     -0.6487     -0.6557     -0.6621     -0.6681     -0.6734    
      -0.6781     -0.6820     -0.6851     -0.6873     -0.6885     -0.6886     -0.6876     -0.6854     -0.6819     -0.6773    
      -0.6714     -0.6644     -0.6565     -0.6476     -0.6331     -0.6004     -0.5272     -0.3812     -0.1551       0.000    
   7    0.000     -0.1695     -0.4004     -0.5449     -0.6215     -0.6602     -0.6795     -0.6923     -0.7051     -0.7178    
      -0.7304     -0.7429     -0.7553     -0.7675     -0.7795     -0.7913     -0.8028     -0.8140     -0.8248     -0.8351    
      -0.8449     -0.8540     -0.8622     -0.8693     -0.8751     -0.8791     -0.8808     -0.8798     -0.8754     -0.8675    
      -0.8564     -0.8428     -0.8272     -0.8103     -0.7837     -0.7282     -0.6204     -0.4357     -0.1761       0.000    
   8    0.000     -0.1802     -0.4266     -0.5843     -0.6696     -0.7132     -0.7352     -0.7499     -0.7646     -0.7794    
      -0.7941     -0.8088     -0.8235     -0.8381     -0.8527     -0.8671     -0.8815     -0.8957     -0.9099     -0.9238    
      -0.9377     -0.9513     -0.9648     -0.9781     -0.9909      -1.003      -1.012      -1.018      -1.015      -1.002    
      -0.9809     -0.9561     -0.9298     -0.9034     -0.8646     -0.7917     -0.6643     -0.4607     -0.1855       0.000    
   9    0.000     -0.1854     -0.4394     -0.6040     -0.6937     -0.7399     -0.7633     -0.7790     -0.7947     -0.8105    
      -0.8263     -0.8421     -0.8580     -0.8739     -0.8898     -0.9056     -0.9215     -0.9373     -0.9531     -0.9689    
      -0.9848      -1.001      -1.017      -1.034      -1.052      -1.071      -1.092      -1.111      -1.118      -1.092    
       -1.055      -1.017     -0.9818     -0.9488     -0.9028     -0.8215     -0.6850     -0.4725     -0.1900       0.000    
  10    0.000     -0.1888     -0.4479     -0.6170     -0.7097     -0.7577     -0.7820     -0.7984     -0.8148     -0.8313    
      -0.8478     -0.8644     -0.8811     -0.8979     -0.9146     -0.9314     -0.9483     -0.9651     -0.9820     -0.9990    
       -1.016      -1.034      -1.052      -1.071      -1.092      -1.116      -1.146      -1.184      -1.219      -1.163    
       -1.105      -1.056      -1.014     -0.9768     -0.9267     -0.8404     -0.6982     -0.4800     -0.1928       0.000    
  11    0.000     -0.1921     -0.4563     -0.6299     -0.7257     -0.7755     -0.8008     -0.8178     -0.8349     -0.8521    
      -0.8694     -0.8868     -0.9043     -0.9219     -0.9395     -0.9573     -0.9751     -0.9930      -1.011      -1.029    
       -1.047      -1.066      -1.085      -1.105      -1.128      -1.155      -1.193      -1.259      -1.393      -1.236    
       -1.147      -1.088      -1.041      -1.001     -0.9484     -0.8580     -0.7108     -0.4873     -0.1956       0.000    
  12    0.000     -0.1953     -0.4645     -0.6428     -0.7417     -0.7932     -0.8195     -0.8371     -0.8549     -0.8729    
      -0.8909     -0.9091     -0.9275     -0.9459     -0.9645     -0.9832      -1.002      -1.021      -1.040      -1.059    
       -1.078      -1.098      -1.117      -1.138      -1.159      -1.183      -1.212      -1.247      -1.279      -1.220    
       -1.159      -1.107      -1.061      -1.022     -0.9675     -0.8744     -0.7228     -0.4943     -0.1982       0.000    
  13    0.000     -0.1984     -0.4726     -0.6555     -0.7576     -0.8109     -0.8381     -0.8565     -0.8750     -0.8936    
      -0.9125     -0.9315     -0.9506     -0.9699     -0.9894      -1.009      -1.029      -1.049      -1.069      -1.089    
       -1.109      -1.129      -1.150      -1.169      -1.188      -1.206      -1.223      -1.237      -1.237      -1.205    
       -1.162      -1.118      -1.077      -1.038     -0.9842     -0.8895     -0.7342     -0.5009     -0.2007       0.000    
  14    0.000     -0.2015     -0.4806     -0.6682     -0.7733     -0.8285     -0.8567     -0.8757     -0.8949     -0.9143    
      -0.9339     -0.9537     -0.9737     -0.9939      -1.014      -1.035      -1.056      -1.077      -1.098      -1.119    
       -1.140      -1.161      -1.182      -1.201      -1.218      -1.231      -1.239      -1.239      -1.228      -1.202    
       -1.166      -1.128      -1.089      -1.052     -0.9989     -0.9032     -0.7448     -0.5072     -0.2031       0.000    
  15    0.000     -0.2045     -0.4884     -0.6807     -0.7890     -0.8460     -0.8752     -0.8949     -0.9148     -0.9349    
      -0.9553     -0.9759     -0.9967      -1.018      -1.039      -1.061      -1.082      -1.104      -1.127      -1.149    
       -1.172      -1.194      -1.216      -1.236      -1.252      -1.262      -1.262      -1.253      -1.234      -1.207    
       -1.174      -1.137      -1.101      -1.064      -1.012     -0.9156     -0.7547     -0.5132     -0.2054       0.000    
  16    0.000     -0.2073     -0.4960     -0.6930     -0.8045     -0.8634     -0.8935     -0.9139     -0.9345     -0.9554    
      -0.9766     -0.9979      -1.020      -1.041      -1.064      -1.086      -1.109      -1.132      -1.155      -1.179    
       -1.203      -1.228      -1.252      -1.275      -1.293      -1.302      -1.294      -1.276      -1.250      -1.218    
       -1.184      -1.148      -1.111      -1.076      -1.023     -0.9269     -0.7638     -0.5188     -0.2075       0.000    
  17    0.000     -0.2101     -0.5035     -0.7052     -0.8199     -0.8806     -0.9117     -0.9328     -0.9541     -0.9758    
      -0.9976      -1.020      -1.042      -1.065      -1.088      -1.111      -1.135      -1.159      -1.184      -1.209    
       -1.235      -1.261      -1.289      -1.318      -1.344      -1.358      -1.338      -1.306      -1.270      -1.233    
       -1.196      -1.158      -1.122      -1.086      -1.034     -0.9369     -0.7722     -0.5241     -0.2095       0.000    
  18    0.000     -0.2128     -0.5108     -0.7171     -0.8350     -0.8976     -0.9298     -0.9515     -0.9736     -0.9959    
       -1.019      -1.042      -1.065      -1.088      -1.112      -1.137      -1.161      -1.186      -1.212      -1.238    
       -1.265      -1.294      -1.326      -1.363      -1.407      -1.447      -1.395      -1.340      -1.292      -1.248    
       -1.207      -1.169      -1.131      -1.095      -1.043     -0.9459     -0.7799     -0.5289     -0.2114       0.000    
  19    0.000     -0.2153     -0.5179     -0.7289     -0.8500     -0.9144     -0.9476     -0.9700     -0.9928      -1.016    
       -1.039      -1.063      -1.087      -1.112      -1.136      -1.161      -1.187      -1.213      -1.239      -1.266    
       -1.294      -1.324      -1.357      -1.401      -1.472      -1.610      -1.455      -1.368      -1.309      -1.260    
       -1.217      -1.178      -1.140      -1.103      -1.051     -0.9538     -0.7868     -0.5334     -0.2132       0.000    
  20    0.000     -0.2178     -0.5248     -0.7404     -0.8648     -0.9310     -0.9652     -0.9883      -1.012      -1.036    
       -1.060      -1.084      -1.109      -1.134      -1.160      -1.186      -1.212      -1.239      -1.266      -1.294    
       -1.321      -1.349      -1.379      -1.412      -1.451      -1.485      -1.428      -1.367      -1.314      -1.267    
       -1.225      -1.185      -1.147      -1.110      -1.058     -0.9607     -0.7929     -0.5375     -0.2148       0.000    
  21    0.000     -0.2201     -0.5314     -0.7517     -0.8793     -0.9474     -0.9825      -1.006      -1.030      -1.055    
       -1.080      -1.105      -1.131      -1.157      -1.183      -1.210      -1.238      -1.265      -1.293      -1.321    
       -1.348      -1.374      -1.397      -1.418      -1.433      -1.435      -1.403      -1.359      -1.314      -1.270    
       -1.229      -1.190      -1.152      -1.116      -1.064     -0.9666     -0.7984     -0.5412     -0.2163       0.000    
  22    0.000     -0.2224     -0.5378     -0.7627     -0.8935     -0.9635     -0.9996      -1.024      -1.049      -1.074    
       -1.100      -1.126      -1.152      -1.179      -1.207      -1.234      -1.263      -1.291      -1.320      -1.349    
       -1.376      -1.400      -1.419      -1.429      -1.429      -1.417      -1.389      -1.352      -1.312      -1.271    
       -1.232      -1.193      -1.156      -1.120      -1.068     -0.9715     -0.8030     -0.5445     -0.2176       0.000    
  23    0.000     -0.2245     -0.5440     -0.7735     -0.9075     -0.9793      -1.016      -1.042      -1.067      -1.093    
       -1.119      -1.146      -1.173      -1.201      -1.229      -1.258      -1.287      -1.317      -1.348      -1.378    
       -1.408      -1.433      -1.449      -1.449      -1.437      -1.415      -1.385      -1.349      -1.311      -1.272    
       -1.233      -1.195      -1.159      -1.123      -1.072     -0.9754     -0.8070     -0.5475     -0.2189       0.000    
  24    0.000     -0.2264     -0.5499     -0.7839     -0.9212     -0.9948      -1.033      -1.059      -1.085      -1.112    
       -1.139      -1.166      -1.194      -1.223      -1.252      -1.281      -1.312      -1.343      -1.375      -1.409    
       -1.443      -1.475      -1.495      -1.482      -1.454      -1.422      -1.386      -1.349      -1.310      -1.272    
       -1.234      -1.197      -1.160      -1.125      -1.074     -0.9784     -0.8103     -0.5500     -0.2199       0.000    
  25    0.000     -0.2283     -0.5555     -0.7940     -0.9346      -1.010      -1.049      -1.076      -1.102      -1.130    
       -1.158      -1.186      -1.215      -1.244      -1.273      -1.304      -1.335      -1.367      -1.401      -1.438    
       -1.481      -1.530      -1.575      -1.528      -1.477      -1.431      -1.389      -1.349      -1.310      -1.271    
       -1.234      -1.197      -1.161      -1.126      -1.076     -0.9806     -0.8129     -0.5521     -0.2209       0.000    
  26    0.000     -0.2300     -0.5609     -0.8038     -0.9476      -1.025      -1.065      -1.092      -1.120      -1.148    
       -1.176      -1.205      -1.235      -1.264      -1.295      -1.326      -1.357      -1.390      -1.424      -1.463    
       -1.511      -1.587      -1.729      -1.578      -1.494      -1.438      -1.391      -1.349      -1.309      -1.270    
       -1.233      -1.196      -1.161      -1.127      -1.076     -0.9819     -0.8148     -0.5538     -0.2217       0.000    
  27    0.000     -0.2316     -0.5659     -0.8132     -0.9602      -1.039      -1.080      -1.108      -1.136      -1.165    
       -1.194      -1.224      -1.254      -1.285      -1.316      -1.347      -1.379      -1.411      -1.443      -1.477    
       -1.515      -1.558      -1.596      -1.542      -1.484      -1.434      -1.388      -1.346      -1.307      -1.268    
       -1.231      -1.195      -1.160      -1.126      -1.076     -0.9824     -0.8160     -0.5551     -0.2223       0.000    
  28    0.000     -0.2331     -0.5706     -0.8222     -0.9725      -1.054      -1.096      -1.124      -1.153      -1.182    
       -1.212      -1.243      -1.273      -1.305      -1.336      -1.368      -1.400      -1.431      -1.461      -1.489    
       -1.513      -1.532      -1.537      -1.508      -1.467      -1.424      -1.382      -1.342      -1.303      -1.265    
       -1.228      -1.193      -1.158      -1.124      -1.075     -0.9821     -0.8166     -0.5561     -0.2228       0.000    
  29    0.000     -0.2344     -0.5750     -0.8308     -0.9844      -1.067      -1.110      -1.139      -1.169      -1.199    
       -1.230      -1.261      -1.292      -1.324      -1.357      -1.390      -1.422      -1.453      -1.481      -1.503    
       -1.517      -1.520      -1.512      -1.487      -1.452      -1.414      -1.375      -1.336      -1.298      -1.261    
       -1.225      -1.190      -1.155      -1.122      -1.073     -0.9810     -0.8166     -0.5566     -0.2232       0.000    
  30    0.000     -0.2356     -0.5790     -0.8390     -0.9959      -1.081      -1.125      -1.154      -1.185      -1.215    
       -1.247      -1.278      -1.311      -1.344      -1.377      -1.411      -1.445      -1.479      -1.508      -1.527    
       -1.530      -1.521      -1.502      -1.475      -1.441      -1.405      -1.367      -1.329      -1.292      -1.256    
       -1.220      -1.186      -1.152      -1.119      -1.071     -0.9792     -0.8159     -0.5568     -0.2234       0.000    
  31    0.000     -0.2366     -0.5826     -0.8467      -1.007      -1.094      -1.139      -1.169      -1.200      -1.231    
       -1.263      -1.296      -1.329      -1.363      -1.397      -1.433      -1.470      -1.508      -1.544      -1.567    
       -1.556      -1.532      -1.502      -1.468      -1.433      -1.396      -1.359      -1.322      -1.286      -1.250    
       -1.215      -1.181      -1.147      -1.115      -1.067     -0.9767     -0.8146     -0.5565     -0.2235       0.000    
  32    0.000     -0.2375     -0.5859     -0.8539      -1.018      -1.106      -1.152      -1.183      -1.215      -1.247    
       -1.279      -1.312      -1.346      -1.381      -1.416      -1.453      -1.494      -1.539      -1.592      -1.640    
       -1.596      -1.548      -1.504      -1.465      -1.426      -1.389      -1.352      -1.315      -1.279      -1.244    
       -1.209      -1.175      -1.142      -1.110      -1.063     -0.9735     -0.8127     -0.5559     -0.2234       0.000    
  33    0.000     -0.2383     -0.5888     -0.8605      -1.028      -1.118      -1.165      -1.197      -1.229      -1.262    
       -1.295      -1.329      -1.363      -1.398      -1.433      -1.471      -1.513      -1.564      -1.643      -1.788    
       -1.640      -1.558      -1.504      -1.459      -1.419      -1.381      -1.344      -1.307      -1.272      -1.237    
       -1.203      -1.169      -1.137      -1.105      -1.058     -0.9696     -0.8103     -0.5550     -0.2232       0.000    
  34    0.000     -0.2388     -0.5913     -0.8667      -1.037      -1.130      -1.178      -1.210      -1.243      -1.277    
       -1.310      -1.345      -1.379      -1.414      -1.449      -1.485      -1.522      -1.562      -1.608      -1.649    
       -1.597      -1.542      -1.493      -1.450      -1.410      -1.372      -1.335      -1.299      -1.264      -1.229    
       -1.195      -1.162      -1.130      -1.099      -1.053     -0.9651     -0.8073     -0.5536     -0.2229       0.000    
  35    0.000     -0.2393     -0.5934     -0.8722      -1.047      -1.141      -1.190      -1.224      -1.257      -1.291    
       -1.325      -1.360      -1.395      -1.430      -1.464      -1.497      -1.527      -1.554      -1.576      -1.584    
       -1.557      -1.519      -1.478      -1.438      -1.399      -1.362      -1.325      -1.290      -1.255      -1.221    
       -1.188      -1.155      -1.123      -1.092      -1.047     -0.9600     -0.8038     -0.5519     -0.2224       0.000    
  36    0.000     -0.2396     -0.5950     -0.8771      -1.055      -1.152      -1.202      -1.236      -1.271      -1.305    
       -1.340      -1.376      -1.411      -1.447      -1.481      -1.512      -1.536      -1.553      -1.559      -1.552    
       -1.530      -1.498      -1.462      -1.424      -1.387      -1.351      -1.315      -1.280      -1.245      -1.212    
       -1.179      -1.147      -1.115      -1.085      -1.040     -0.9542     -0.7997     -0.5498     -0.2218       0.000    
  37    0.000     -0.2397     -0.5962     -0.8813      -1.063      -1.163      -1.214      -1.249      -1.284      -1.319    
       -1.355      -1.391      -1.428      -1.465      -1.501      -1.532      -1.555      -1.560      -1.554      -1.537    
       -1.512      -1.481      -1.446      -1.411      -1.375      -1.339      -1.304      -1.269      -1.235      -1.202    
       -1.170      -1.138      -1.107      -1.077      -1.032     -0.9479     -0.7951     -0.5474     -0.2211       0.000    
  38    0.000     -0.2396     -0.5970     -0.8848      -1.071      -1.173      -1.225      -1.261      -1.296      -1.332    
       -1.369      -1.406      -1.444      -1.484      -1.524      -1.563      -1.589      -1.581      -1.559      -1.531    
       -1.501      -1.467      -1.433      -1.397      -1.362      -1.327      -1.292      -1.258      -1.225      -1.192    
       -1.160      -1.129      -1.098      -1.068      -1.024     -0.9410     -0.7900     -0.5447     -0.2202       0.000    
  39    0.000     -0.2394     -0.5972     -0.8876      -1.077      -1.183      -1.236      -1.273      -1.309      -1.346    
       -1.382      -1.420      -1.460      -1.503      -1.551      -1.606      -1.657      -1.616      -1.570      -1.529    
       -1.491      -1.455      -1.419      -1.384      -1.349      -1.314      -1.280      -1.246      -1.214      -1.181    
       -1.150      -1.119      -1.089      -1.059      -1.016     -0.9335     -0.7844     -0.5416     -0.2192       0.000    
  40    0.000     -0.2391     -0.5970     -0.8895      -1.084      -1.192      -1.247      -1.284      -1.321      -1.358    
       -1.395      -1.433      -1.472      -1.516      -1.570      -1.651      -1.799      -1.654      -1.575      -1.523    
       -1.481      -1.443      -1.406      -1.371      -1.336      -1.301      -1.267      -1.234      -1.202      -1.170    
       -1.139      -1.108      -1.078      -1.049      -1.007     -0.9255     -0.7783     -0.5382     -0.2180       0.000    
  41    0.000     -0.2386     -0.5963     -0.8905      -1.089      -1.201      -1.258      -1.296      -1.334      -1.371    
       -1.407      -1.444      -1.480      -1.519      -1.562      -1.610      -1.654      -1.606      -1.554      -1.508    
       -1.467      -1.429      -1.392      -1.357      -1.322      -1.288      -1.254      -1.221      -1.189      -1.158    
       -1.127      -1.097      -1.068      -1.039     -0.9970     -0.9169     -0.7718     -0.5344     -0.2167       0.000    
  42    0.000     -0.2379     -0.5951     -0.8905      -1.093      -1.210      -1.270      -1.309      -1.347      -1.384    
       -1.420      -1.454      -1.487      -1.518      -1.548      -1.573      -1.584      -1.561      -1.526      -1.488    
       -1.450      -1.413      -1.377      -1.342      -1.308      -1.274      -1.241      -1.208      -1.176      -1.145    
       -1.115      -1.085      -1.056      -1.028     -0.9867     -0.9078     -0.7648     -0.5304     -0.2153       0.000    
  43    0.000     -0.2371     -0.5934     -0.8895      -1.096      -1.218      -1.281      -1.323      -1.362      -1.399    
       -1.434      -1.466      -1.495      -1.519      -1.538      -1.549      -1.547      -1.529      -1.501      -1.467    
       -1.432      -1.397      -1.362      -1.327      -1.293      -1.259      -1.226      -1.194      -1.163      -1.132    
       -1.102      -1.073      -1.044      -1.017     -0.9758     -0.8981     -0.7573     -0.5260     -0.2138       0.000    
  44    0.000     -0.2361     -0.5911     -0.8874      -1.097      -1.226      -1.294      -1.338      -1.380      -1.417    
       -1.450      -1.481      -1.507      -1.526      -1.537      -1.537      -1.528      -1.508      -1.480      -1.449    
       -1.415      -1.380      -1.345      -1.311      -1.277      -1.244      -1.211      -1.180      -1.149      -1.118    
       -1.089      -1.060      -1.032      -1.005     -0.9644     -0.8880     -0.7495     -0.5214     -0.2121       0.000    
  45    0.000     -0.2349     -0.5884     -0.8841      -1.097      -1.232      -1.307      -1.357      -1.402      -1.439    
       -1.470      -1.500      -1.526      -1.543      -1.545      -1.536      -1.518      -1.494      -1.465      -1.432    
       -1.399      -1.364      -1.329      -1.295      -1.261      -1.228      -1.196      -1.165      -1.134      -1.104    
       -1.075      -1.047      -1.019     -0.9919     -0.9525     -0.8774     -0.7412     -0.5165     -0.2104       0.000    
  46    0.000     -0.2336     -0.5851     -0.8795      -1.094      -1.237      -1.321      -1.380      -1.433      -1.465    
       -1.493      -1.522      -1.553      -1.575      -1.565      -1.542      -1.515      -1.485      -1.452      -1.418    
       -1.383      -1.348      -1.313      -1.278      -1.245      -1.212      -1.180      -1.149      -1.118      -1.089    
       -1.060      -1.032      -1.005     -0.9787     -0.9400     -0.8663     -0.7325     -0.5113     -0.2085       0.000    
  47    0.000     -0.2321     -0.5813     -0.8736      -1.089      -1.237      -1.333      -1.408      -1.486      -1.496    
       -1.512      -1.544      -1.590      -1.639      -1.598      -1.554      -1.515      -1.478      -1.442      -1.405    
       -1.368      -1.331      -1.296      -1.261      -1.227      -1.194      -1.163      -1.132      -1.102      -1.073    
       -1.045      -1.018     -0.9909     -0.9649     -0.9270     -0.8547     -0.7235     -0.5058     -0.2065       0.000    
  48    0.000     -0.2305     -0.5770     -0.8664      -1.080      -1.229      -1.334      -1.432      -1.590      -1.522    
       -1.517      -1.550      -1.624      -1.772      -1.632      -1.560      -1.513      -1.472      -1.431      -1.391    
       -1.352      -1.314      -1.278      -1.243      -1.209      -1.176      -1.145      -1.115      -1.085      -1.057    
       -1.029      -1.002     -0.9761     -0.9506     -0.9134     -0.8427     -0.7140     -0.5001     -0.2043       0.000    
  49    0.000     -0.2287     -0.5722     -0.8579      -1.067      -1.212      -1.307      -1.381      -1.458      -1.468    
       -1.484      -1.516      -1.564      -1.616      -1.580      -1.541      -1.505      -1.464      -1.420      -1.377    
       -1.335      -1.296      -1.259      -1.223      -1.189      -1.157      -1.126      -1.096      -1.067      -1.040    
       -1.012     -0.9862     -0.9606     -0.9357     -0.8994     -0.8302     -0.7043     -0.4941     -0.2021       0.000    
  50    0.000     -0.2268     -0.5669     -0.8481      -1.052      -1.188      -1.269      -1.325      -1.377      -1.407    
       -1.434      -1.465      -1.499      -1.528      -1.529      -1.520      -1.503      -1.459      -1.409      -1.361    
       -1.317      -1.276      -1.238      -1.202      -1.169      -1.137      -1.106      -1.077      -1.049      -1.022    
      -0.9952     -0.9695     -0.9446     -0.9203     -0.8848     -0.8173     -0.6942     -0.4879     -0.1998       0.000    
  51    0.000     -0.2248     -0.5611     -0.8370      -1.034      -1.159      -1.229      -1.275      -1.317      -1.351    
       -1.381      -1.410      -1.440      -1.467      -1.487      -1.508      -1.526      -1.461      -1.397      -1.342    
       -1.294      -1.252      -1.214      -1.179      -1.146      -1.115      -1.085      -1.057      -1.029      -1.003    
      -0.9772     -0.9523     -0.9280     -0.9044     -0.8698     -0.8040     -0.6837     -0.4815     -0.1973       0.000    
  52    0.000     -0.2225     -0.5548     -0.8248      -1.013      -1.128      -1.189      -1.228      -1.265      -1.298    
       -1.328      -1.356      -1.384      -1.412      -1.445      -1.499      -1.613      -1.463      -1.375      -1.315    
       -1.267      -1.225      -1.188      -1.154      -1.122      -1.092      -1.063      -1.036      -1.009     -0.9835    
      -0.9586     -0.9344     -0.9109     -0.8879     -0.8544     -0.7903     -0.6730     -0.4748     -0.1948       0.000    
  53    0.000     -0.2202     -0.5481     -0.8117     -0.9910      -1.096      -1.150      -1.185      -1.218      -1.248    
       -1.276      -1.302      -1.328      -1.354      -1.381      -1.414      -1.442      -1.385      -1.326      -1.275    
       -1.232      -1.194      -1.159      -1.127      -1.096      -1.068      -1.040      -1.014     -0.9882     -0.9634    
      -0.9394     -0.9160     -0.8932     -0.8710     -0.8385     -0.7763     -0.6620     -0.4680     -0.1922       0.000    
  54    0.000     -0.2164     -0.5374     -0.7905     -0.9561      -1.048      -1.093      -1.123      -1.150      -1.177    
       -1.201      -1.224      -1.244      -1.263      -1.279      -1.289      -1.289      -1.269      -1.239      -1.206    
       -1.173      -1.142      -1.112      -1.083      -1.056      -1.029      -1.004     -0.9794     -0.9556     -0.9324    
      -0.9097     -0.8877     -0.8661     -0.8450     -0.8141     -0.7547     -0.6451     -0.4574     -0.1881       0.000    
  55    0.000     -0.2082     -0.5137     -0.7440     -0.8824     -0.9526     -0.9860      -1.007      -1.027      -1.046    
       -1.062      -1.077      -1.089      -1.099      -1.104      -1.106      -1.103      -1.095      -1.083      -1.067    
       -1.049      -1.030      -1.010     -0.9891     -0.9685     -0.9479     -0.9274     -0.9071     -0.8870     -0.8673    
      -0.8477     -0.8285     -0.8096     -0.7909     -0.7634     -0.7100     -0.6099     -0.4352     -0.1793       0.000    
  56    0.000     -0.1887     -0.4591     -0.6417     -0.7356     -0.7780     -0.7972     -0.8090     -0.8199     -0.8296    
      -0.8381     -0.8452     -0.8508     -0.8548     -0.8572     -0.8578     -0.8566     -0.8537     -0.8492     -0.8432    
      -0.8358     -0.8272     -0.8176     -0.8072     -0.7959     -0.7841     -0.7718     -0.7591     -0.7461     -0.7328    
      -0.7193     -0.7057     -0.6919     -0.6782     -0.6575     -0.6162     -0.5354     -0.3874     -0.1600       0.000    
  57    0.000     -0.1413     -0.3354     -0.4416     -0.4870     -0.5057     -0.5138     -0.5188     -0.5232     -0.5272    
      -0.5306     -0.5335     -0.5358     -0.5375     -0.5386     -0.5392     -0.5391     -0.5384     -0.5372     -0.5354    
      -0.5331     -0.5302     -0.5268     -0.5230     -0.5187     -0.5140     -0.5089     -0.5034     -0.4976     -0.4915    
      -0.4851     -0.4785     -0.4716     -0.4645     -0.4535     -0.4306     -0.3824     -0.2840     -0.1156       0.000    
  58    0.000     -3.4226E-02 -0.1075     -0.1410     -0.1539     -0.1590     -0.1611     -0.1625     -0.1637     -0.1647    
      -0.1656     -0.1664     -0.1670     -0.1675     -0.1679     -0.1681     -0.1681     -0.1680     -0.1678     -0.1674    
      -0.1668     -0.1662     -0.1653     -0.1644     -0.1633     -0.1621     -0.1607     -0.1593     -0.1577     -0.1560    
      -0.1542     -0.1523     -0.1503     -0.1482     -0.1449     -0.1378     -0.1219     -8.6355E-02 -1.9055E-02   0.000    
  59    0.000      8.8783E-02  0.1022      0.1042      0.1048      0.1050      0.1051      0.1052      0.1053      0.1054    
       0.1055      0.1056      0.1056      0.1057      0.1058      0.1059      0.1060      0.1062      0.1063      0.1064    
       0.1065      0.1066      0.1068      0.1069      0.1070      0.1072      0.1073      0.1074      0.1076      0.1077    
       0.1078      0.1080      0.1081      0.1082      0.1084      0.1087      0.1091      0.1084      9.4428E-02   0.000    
  60    0.000      0.1634      0.2175      0.2339      0.2396      0.2419      0.2429      0.2436      0.2442      0.2447    
       0.2452      0.2456      0.2460      0.2464      0.2467      0.2469      0.2471      0.2473      0.2474      0.2475    
       0.2475      0.2475      0.2475      0.2474      0.2472      0.2470      0.2468      0.2465      0.2462      0.2458    
       0.2453      0.2449      0.2443      0.2438      0.2428      0.2407      0.2352      0.2193      0.1653       0.000    
  61    0.000      0.1950      0.2647      0.2863      0.2940      0.2971      0.2984      0.2993      0.3000      0.3007    
       0.3014      0.3019      0.3025      0.3029      0.3033      0.3036      0.3039      0.3041      0.3042      0.3043    
       0.3043      0.3043      0.3041      0.3040      0.3037      0.3034      0.3031      0.3026      0.3021      0.3016    
       0.3010      0.3003      0.2995      0.2987      0.2974      0.2944      0.2868      0.2654      0.1958       0.000    
1
              HEAD IN LAYER   2 AT END OF TIME STEP   1 IN STRESS PERIOD    1
  ---------------------------------------------------------------------------

            1           2           3           4           5           6           7           8           9          10
           11          12          13          14          15          16          17          18          19          20
           21          22          23          24          25          26          27          28          29          30
           31          32          33          34          35          36          37          38          39          40
 ........................................................................................................................
   1    0.000      0.2024      0.2752      0.2978      0.3058      0.3090      0.3104      0.3113      0.3120      0.3128    
       0.3134      0.3140      0.3145      0.3150      0.3154      0.3157      0.3160      0.3162      0.3163      0.3164    
       0.3164      0.3163      0.3161      0.3159      0.3157      0.3153      0.3149      0.3145      0.3139      0.3133    
       0.3127      0.3119      0.3111      0.3102      0.3088      0.3056      0.2976      0.2749      0.2020       0.000    
   2    0.000      0.1743      0.2332      0.2509      0.2571      0.2595      0.2606      0.2612      0.2618      0.2624    
       0.2629      0.2633      0.2637      0.2641      0.2643      0.2646      0.2648      0.2649      0.2650      0.2650    
       0.2650      0.2650      0.2648      0.2647      0.2644      0.2642      0.2639      0.2635      0.2631      0.2626    
       0.2621      0.2615      0.2609      0.2602      0.2591      0.2566      0.2502      0.2323      0.1735       0.000    
   3    0.000      0.1086      0.1317      0.1362      0.1373      0.1377      0.1378      0.1379      0.1380      0.1380    
       0.1380      0.1381      0.1381      0.1381      0.1381      0.1381      0.1380      0.1380      0.1379      0.1379    
       0.1378      0.1378      0.1377      0.1376      0.1375      0.1374      0.1373      0.1372      0.1370      0.1369    
       0.1368      0.1366      0.1364      0.1363      0.1360      0.1353      0.1337      0.1286      0.1060       0.000    
   4    0.000      3.6276E-04 -4.8835E-02 -7.4778E-02 -8.6150E-02 -9.1180E-02 -9.3500E-02 -9.4976E-02 -9.6379E-02 -9.7704E-02
      -9.8950E-02 -0.1001     -0.1012     -0.1022     -0.1031     -0.1039     -0.1046     -0.1052     -0.1057     -0.1061    
      -0.1064     -0.1066     -0.1067     -0.1067     -0.1065     -0.1063     -0.1060     -0.1055     -0.1049     -0.1043    
      -0.1035     -0.1027     -0.1017     -0.1006     -9.8883E-02 -9.4863E-02 -8.4888E-02 -5.9466E-02 -6.1857E-03   0.000    
   5    0.000     -9.7839E-02 -0.2393     -0.3165     -0.3526     -0.3693     -0.3771     -0.3822     -0.3871     -0.3918    
      -0.3962     -0.4005     -0.4045     -0.4082     -0.4117     -0.4148     -0.4177     -0.4202     -0.4223     -0.4242    
      -0.4256     -0.4267     -0.4273     -0.4276     -0.4274     -0.4268     -0.4258     -0.4244     -0.4225     -0.4202    
      -0.4174     -0.4143     -0.4108     -0.4069     -0.4005     -0.3857     -0.3499     -0.2652     -0.1073       0.000    
   6    0.000     -0.1468     -0.3468     -0.4663     -0.5270     -0.5566     -0.5711     -0.5807     -0.5900     -0.5992    
      -0.6082     -0.6169     -0.6254     -0.6335     -0.6413     -0.6487     -0.6557     -0.6622     -0.6681     -0.6735    
      -0.6781     -0.6821     -0.6851     -0.6873     -0.6885     -0.6887     -0.6877     -0.6854     -0.6820     -0.6773    
      -0.6715     -0.6645     -0.6565     -0.6476     -0.6331     -0.6005     -0.5273     -0.3812     -0.1552       0.000    
   7    0.000     -0.1696     -0.4004     -0.5450     -0.6215     -0.6602     -0.6795     -0.6923     -0.7051     -0.7178    
      -0.7305     -0.7430     -0.7554     -0.7676     -0.7796     -0.7914     -0.8029     -0.8140     -0.8248     -0.8352    
      -0.8449     -0.8540     -0.8622     -0.8694     -0.8752     -0.8792     -0.8809     -0.8798     -0.8754     -0.8675    
      -0.8564     -0.8428     -0.8273     -0.8104     -0.7837     -0.7283     -0.6204     -0.4357     -0.1761       0.000    
   8    0.000     -0.1803     -0.4266     -0.5844     -0.6696     -0.7133     -0.7353     -0.7500     -0.7647     -0.7794    
      -0.7941     -0.8089     -0.8235     -0.8382     -0.8527     -0.8672     -0.8815     -0.8958     -0.9099     -0.9239    
      -0.9377     -0.9514     -0.9649     -0.9781     -0.9910      -1.003      -1.012      -1.018      -1.015      -1.002    
      -0.9809     -0.9561     -0.9298     -0.9035     -0.8646     -0.7918     -0.6644     -0.4607     -0.1856       0.000    
   9    0.000     -0.1855     -0.4395     -0.6040     -0.6937     -0.7400     -0.7633     -0.7790     -0.7947     -0.8105    
      -0.8263     -0.8422     -0.8581     -0.8739     -0.8898     -0.9057     -0.9215     -0.9373     -0.9532     -0.9690    
      -0.9848      -1.001      -1.017      -1.034      -1.052      -1.071      -1.092      -1.111      -1.118      -1.092    
       -1.055      -1.017     -0.9818     -0.9488     -0.9029     -0.8215     -0.6850     -0.4725     -0.1900       0.000    
  10    0.000     -0.1888     -0.4479     -0.6170     -0.7098     -0.7578     -0.7821     -0.7984     -0.8148     -0.8313    
      -0.8479     -0.8645     -0.8812     -0.8979     -0.9147     -0.9315     -0.9483     -0.9652     -0.9821     -0.9991    
       -1.016      -1.034      -1.052      -1.071      -1.092      -1.116      -1.146      -1.184      -1.220      -1.163    
       -1.105      -1.056      -1.014     -0.9769     -0.9268     -0.8404     -0.6982     -0.4801     -0.1929       0.000    
  11    0.000     -0.1921     -0.4563     -0.6300     -0.7258     -0.7755     -0.8008     -0.8178     -0.8349     -0.8521    
      -0.8694     -0.8868     -0.9043     -0.9219     -0.9396     -0.9573     -0.9751     -0.9930      -1.011      -1.029    
       -1.047      -1.066      -1.085      -1.105      -1.128      -1.155      -1.193      -1.259      -1.407      -1.236    
       -1.147      -1.088      -1.041      -1.001     -0.9484     -0.8581     -0.7109     -0.4873     -0.1956       0.000    
  12    0.000     -0.1954     -0.4645     -0.6428     -0.7417     -0.7933     -0.8195     -0.8372     -0.8550     -0.8729    
      -0.8910     -0.9092     -0.9275     -0.9460     -0.9645     -0.9832      -1.002      -1.021      -1.040      -1.059    
       -1.078      -1.098      -1.118      -1.138      -1.159      -1.183      -1.212      -1.247      -1.279      -1.220    
       -1.159      -1.107      -1.061      -1.022     -0.9675     -0.8745     -0.7229     -0.4943     -0.1982       0.000    
  13    0.000     -0.1985     -0.4726     -0.6556     -0.7576     -0.8110     -0.8382     -0.8565     -0.8750     -0.8937    
      -0.9125     -0.9315     -0.9507     -0.9700     -0.9894      -1.009      -1.029      -1.049      -1.069      -1.089    
       -1.109      -1.130      -1.150      -1.169      -1.188      -1.206      -1.223      -1.237      -1.237      -1.205    
       -1.162      -1.118      -1.077      -1.038     -0.9843     -0.8895     -0.7342     -0.5010     -0.2007       0.000    
  14    0.000     -0.2015     -0.4806     -0.6682     -0.7734     -0.8286     -0.8568     -0.8758     -0.8950     -0.9144    
      -0.9340     -0.9538     -0.9738     -0.9939      -1.014      -1.035      -1.056      -1.077      -1.098      -1.119    
       -1.140      -1.162      -1.182      -1.201      -1.218      -1.231      -1.239      -1.239      -1.228      -1.202    
       -1.166      -1.128      -1.089      -1.052     -0.9989     -0.9032     -0.7448     -0.5073     -0.2031       0.000    
  15    0.000     -0.2045     -0.4884     -0.6807     -0.7890     -0.8460     -0.8752     -0.8949     -0.9149     -0.9350    
      -0.9554     -0.9759     -0.9968      -1.018      -1.039      -1.061      -1.082      -1.104      -1.127      -1.149    
       -1.172      -1.194      -1.216      -1.236      -1.252      -1.262      -1.262      -1.253      -1.234      -1.207    
       -1.174      -1.137      -1.101      -1.064      -1.012     -0.9157     -0.7547     -0.5132     -0.2054       0.000    
  16    0.000     -0.2074     -0.4961     -0.6930     -0.8046     -0.8634     -0.8936     -0.9140     -0.9346     -0.9555    
      -0.9766     -0.9980      -1.020      -1.042      -1.064      -1.086      -1.109      -1.132      -1.155      -1.179    
       -1.203      -1.228      -1.252      -1.275      -1.293      -1.302      -1.294      -1.276      -1.250      -1.218    
       -1.184      -1.148      -1.111      -1.076      -1.023     -0.9269     -0.7639     -0.5189     -0.2075       0.000    
  17    0.000     -0.2101     -0.5036     -0.7052     -0.8199     -0.8806     -0.9118     -0.9328     -0.9542     -0.9758    
      -0.9977      -1.020      -1.042      -1.065      -1.088      -1.112      -1.135      -1.159      -1.184      -1.209    
       -1.235      -1.261      -1.289      -1.318      -1.344      -1.358      -1.339      -1.306      -1.270      -1.233    
       -1.196      -1.158      -1.122      -1.086      -1.034     -0.9370     -0.7723     -0.5241     -0.2096       0.000    
  18    0.000     -0.2128     -0.5109     -0.7172     -0.8351     -0.8976     -0.9298     -0.9516     -0.9736     -0.9959    
       -1.019      -1.042      -1.065      -1.088      -1.112      -1.137      -1.161      -1.186      -1.212      -1.238    
       -1.265      -1.294      -1.326      -1.363      -1.407      -1.448      -1.396      -1.340      -1.292      -1.248    
       -1.207      -1.169      -1.131      -1.095      -1.043     -0.9460     -0.7799     -0.5290     -0.2115       0.000    
  19    0.000     -0.2154     -0.5179     -0.7289     -0.8501     -0.9145     -0.9476     -0.9701     -0.9928      -1.016    
       -1.039      -1.063      -1.087      -1.112      -1.136      -1.161      -1.187      -1.213      -1.239      -1.266    
       -1.294      -1.324      -1.357      -1.401      -1.472      -1.624      -1.455      -1.368      -1.309      -1.260    
       -1.218      -1.178      -1.140      -1.103      -1.051     -0.9539     -0.7868     -0.5335     -0.2132       0.000    
  20    0.000     -0.2178     -0.5248     -0.7405     -0.8648     -0.9311     -0.9652     -0.9883      -1.012      -1.036    
       -1.060      -1.084      -1.109      -1.134      -1.160      -1.186      -1.212      -1.239      -1.266      -1.294    
       -1.321      -1.349      -1.379      -1.412      -1.451      -1.486      -1.428      -1.367      -1.314      -1.267    
       -1.225      -1.185      -1.147      -1.110      -1.058     -0.9608     -0.7930     -0.5376     -0.2148       0.000    
  21    0.000     -0.2202     -0.5315     -0.7518     -0.8793     -0.9474     -0.9826      -1.006      -1.031      -1.055    
       -1.080      -1.105      -1.131      -1.157      -1.183      -1.210      -1.238      -1.265      -1.293      -1.321    
       -1.348      -1.374      -1.397      -1.418      -1.433      -1.435      -1.403      -1.359      -1.314      -1.270    
       -1.229      -1.190      -1.152      -1.116      -1.064     -0.9666     -0.7984     -0.5413     -0.2163       0.000    
  22    0.000     -0.2224     -0.5379     -0.7628     -0.8936     -0.9635     -0.9997      -1.024      -1.049      -1.074    
       -1.100      -1.126      -1.152      -1.179      -1.207      -1.234      -1.263      -1.291      -1.320      -1.349    
       -1.376      -1.400      -1.419      -1.429      -1.429      -1.417      -1.389      -1.352      -1.312      -1.272    
       -1.232      -1.193      -1.156      -1.120      -1.068     -0.9715     -0.8031     -0.5446     -0.2177       0.000    
  23    0.000     -0.2245     -0.5441     -0.7735     -0.9076     -0.9794      -1.016      -1.042      -1.067      -1.093    
       -1.119      -1.146      -1.173      -1.201      -1.229      -1.258      -1.287      -1.317      -1.348      -1.378    
       -1.408      -1.433      -1.449      -1.449      -1.437      -1.415      -1.385      -1.349      -1.311      -1.272    
       -1.233      -1.195      -1.159      -1.123      -1.072     -0.9755     -0.8071     -0.5475     -0.2189       0.000    
  24    0.000     -0.2265     -0.5500     -0.7840     -0.9212     -0.9949      -1.033      -1.059      -1.085      -1.112    
       -1.139      -1.166      -1.194      -1.223      -1.252      -1.281      -1.312      -1.343      -1.375      -1.409    
       -1.443      -1.475      -1.496      -1.482      -1.454      -1.422      -1.386      -1.349      -1.310      -1.272    
       -1.234      -1.197      -1.161      -1.125      -1.074     -0.9785     -0.8103     -0.5500     -0.2200       0.000    
  25    0.000     -0.2283     -0.5556     -0.7941     -0.9346      -1.010      -1.049      -1.076      -1.102      -1.130    
       -1.158      -1.186      -1.215      -1.244      -1.274      -1.304      -1.335      -1.367      -1.401      -1.438    
       -1.481      -1.530      -1.576      -1.528      -1.477      -1.431      -1.389      -1.349      -1.310      -1.271    
       -1.234      -1.197      -1.161      -1.126      -1.076     -0.9806     -0.8129     -0.5521     -0.2209       0.000    
  26    0.000     -0.2301     -0.5609     -0.8038     -0.9476      -1.025      -1.065      -1.092      -1.120      -1.148    
       -1.176      -1.205      -1.235      -1.264      -1.295      -1.326      -1.357      -1.390      -1.424      -1.463    
       -1.511      -1.587      -1.743      -1.579      -1.494      -1.438      -1.391      -1.349      -1.309      -1.270    
       -1.233      -1.197      -1.161      -1.127      -1.076     -0.9819     -0.8148     -0.5539     -0.2217       0.000    
  27    0.000     -0.2317     -0.5659     -0.8132     -0.9603      -1.039      -1.080      -1.108      -1.136      -1.165    
       -1.194      -1.224      -1.254      -1.285      -1.316      -1.347      -1.379      -1.411      -1.443      -1.477    
       -1.515      -1.558      -1.597      -1.542      -1.484      -1.434      -1.388      -1.346      -1.307      -1.268    
       -1.231      -1.195      -1.160      -1.126      -1.076     -0.9824     -0.8161     -0.5552     -0.2224       0.000    
  28    0.000     -0.2331     -0.5706     -0.8222     -0.9726      -1.054      -1.096      -1.124      -1.153      -1.182    
       -1.212      -1.243      -1.273      -1.305      -1.336      -1.368      -1.400      -1.431      -1.461      -1.489    
       -1.513      -1.532      -1.537      -1.508      -1.467      -1.424      -1.382      -1.342      -1.303      -1.265    
       -1.228      -1.193      -1.158      -1.124      -1.075     -0.9821     -0.8166     -0.5561     -0.2229       0.000    
  29    0.000     -0.2345     -0.5750     -0.8308     -0.9845      -1.067      -1.110      -1.139      -1.169      -1.199    
       -1.230      -1.261      -1.292      -1.324      -1.357      -1.390      -1.422      -1.453      -1.481      -1.503    
       -1.517      -1.520      -1.512      -1.487      -1.452      -1.414      -1.375      -1.336      -1.298      -1.261    
       -1.225      -1.190      -1.155      -1.122      -1.073     -0.9810     -0.8166     -0.5567     -0.2232       0.000    
  30    0.000     -0.2356     -0.5790     -0.8390     -0.9960      -1.081      -1.125      -1.154      -1.185      -1.215    
       -1.247      -1.278      -1.311      -1.344      -1.377      -1.411      -1.446      -1.479      -1.508      -1.527    
       -1.530      -1.521      -1.502      -1.475      -1.441      -1.405      -1.367      -1.329      -1.292      -1.256    
       -1.220      -1.186      -1.152      -1.119      -1.071     -0.9792     -0.8159     -0.5568     -0.2235       0.000    
  31    0.000     -0.2367     -0.5827     -0.8467      -1.007      -1.094      -1.139      -1.169      -1.200      -1.231    
       -1.263      -1.296      -1.329      -1.363      -1.397      -1.433      -1.470      -1.508      -1.544      -1.567    
       -1.556      -1.532      -1.502      -1.468      -1.433      -1.396      -1.359      -1.322      -1.286      -1.250    
       -1.215      -1.181      -1.147      -1.115      -1.067     -0.9767     -0.8147     -0.5566     -0.2235       0.000    
  32    0.000     -0.2376     -0.5860     -0.8539      -1.018      -1.106      -1.152      -1.183      -1.215      -1.247    
       -1.279      -1.313      -1.346      -1.381      -1.416      -1.454      -1.494      -1.539      -1.592      -1.641    
       -1.596      -1.548      -1.504      -1.465      -1.426      -1.389      -1.352      -1.315      -1.279      -1.244    
       -1.209      -1.175      -1.142      -1.110      -1.063     -0.9735     -0.8128     -0.5560     -0.2235       0.000    
  33    0.000     -0.2383     -0.5889     -0.8606      -1.028      -1.118      -1.165      -1.197      -1.229      -1.262    
       -1.295      -1.329      -1.363      -1.398      -1.433      -1.471      -1.513      -1.564      -1.643      -1.802    
       -1.640      -1.558      -1.504      -1.459      -1.419      -1.381      -1.344      -1.307      -1.272      -1.237    
       -1.203      -1.169      -1.137      -1.105      -1.058     -0.9697     -0.8104     -0.5550     -0.2233       0.000    
  34    0.000     -0.2389     -0.5914     -0.8667      -1.037      -1.130      -1.178      -1.210      -1.243      -1.277    
       -1.310      -1.345      -1.379      -1.414      -1.449      -1.485      -1.522      -1.562      -1.608      -1.649    
       -1.597      -1.542      -1.493      -1.450      -1.410      -1.372      -1.335      -1.299      -1.264      -1.229    
       -1.195      -1.162      -1.130      -1.099      -1.053     -0.9652     -0.8074     -0.5537     -0.2229       0.000    
  35    0.000     -0.2393     -0.5934     -0.8722      -1.047      -1.141      -1.190      -1.224      -1.257      -1.291    
       -1.326      -1.360      -1.395      -1.430      -1.464      -1.497      -1.527      -1.555      -1.576      -1.584    
       -1.557      -1.519      -1.478      -1.438      -1.399      -1.362      -1.325      -1.290      -1.255      -1.221    
       -1.188      -1.155      -1.123      -1.092      -1.047     -0.9600     -0.8038     -0.5519     -0.2225       0.000    
  36    0.000     -0.2396     -0.5951     -0.8771      -1.055      -1.152      -1.202      -1.236      -1.271      -1.305    
       -1.340      -1.376      -1.411      -1.447      -1.481      -1.512      -1.537      -1.553      -1.559      -1.553    
       -1.530      -1.498      -1.462      -1.424      -1.387      -1.351      -1.315      -1.280      -1.245      -1.212    
       -1.179      -1.147      -1.115      -1.085      -1.040     -0.9543     -0.7997     -0.5499     -0.2219       0.000    
  37    0.000     -0.2397     -0.5963     -0.8814      -1.063      -1.163      -1.214      -1.249      -1.284      -1.319    
       -1.355      -1.391      -1.428      -1.465      -1.501      -1.532      -1.555      -1.560      -1.554      -1.538    
       -1.512      -1.481      -1.446      -1.411      -1.375      -1.339      -1.304      -1.269      -1.235      -1.202    
       -1.170      -1.138      -1.107      -1.077      -1.032     -0.9479     -0.7951     -0.5475     -0.2211       0.000    
  38    0.000     -0.2397     -0.5970     -0.8849      -1.071      -1.173      -1.225      -1.261      -1.296      -1.332    
       -1.369      -1.406      -1.445      -1.484      -1.525      -1.563      -1.589      -1.581      -1.559      -1.531    
       -1.501      -1.467      -1.433      -1.397      -1.362      -1.327      -1.292      -1.258      -1.225      -1.192    
       -1.160      -1.129      -1.098      -1.068      -1.024     -0.9410     -0.7900     -0.5447     -0.2202       0.000    
  39    0.000     -0.2395     -0.5973     -0.8876      -1.078      -1.183      -1.237      -1.273      -1.309      -1.346    
       -1.383      -1.420      -1.460      -1.503      -1.551      -1.606      -1.657      -1.616      -1.570      -1.529    
       -1.491      -1.455      -1.420      -1.384      -1.349      -1.314      -1.280      -1.246      -1.214      -1.181    
       -1.150      -1.119      -1.089      -1.059      -1.016     -0.9335     -0.7844     -0.5416     -0.2192       0.000    
  40    0.000     -0.2391     -0.5971     -0.8895      -1.084      -1.192      -1.247      -1.284      -1.321      -1.358    
       -1.395      -1.433      -1.472      -1.516      -1.570      -1.651      -1.813      -1.654      -1.575      -1.523    
       -1.481      -1.443      -1.406      -1.371      -1.336      -1.301      -1.267      -1.234      -1.202      -1.170    
       -1.139      -1.108      -1.078      -1.049      -1.007     -0.9255     -0.7783     -0.5382     -0.2180       0.000    
  41    0.000     -0.2386     -0.5963     -0.8905      -1.089      -1.201      -1.258      -1.296      -1.334      -1.371    
       -1.407      -1.444      -1.480      -1.519      -1.562      -1.610      -1.655      -1.606      -1.554      -1.508    
       -1.467      -1.429      -1.392      -1.357      -1.322      -1.288      -1.254      -1.222      -1.189      -1.158    
       -1.127      -1.097      -1.068      -1.039     -0.9970     -0.9169     -0.7718     -0.5345     -0.2168       0.000    
  42    0.000     -0.2380     -0.5951     -0.8906      -1.093      -1.210      -1.270      -1.309      -1.347      -1.384    
       -1.420      -1.454      -1.487      -1.518      -1.548      -1.573      -1.584      -1.561      -1.526      -1.488    
       -1.450      -1.413      -1.377      -1.342      -1.308      -1.274      -1.241      -1.208      -1.176      -1.145    
       -1.115      -1.085      -1.056      -1.028     -0.9867     -0.9078     -0.7648     -0.5304     -0.2154       0.000    
  43    0.000     -0.2371     -0.5934     -0.8895      -1.096      -1.218      -1.281      -1.323      -1.362      -1.399    
       -1.434      -1.466      -1.495      -1.519      -1.538      -1.549      -1.547      -1.529      -1.501      -1.467    
       -1.432      -1.397      -1.362      -1.327      -1.293      -1.259      -1.226      -1.194      -1.163      -1.132    
       -1.102      -1.073      -1.045      -1.017     -0.9759     -0.8982     -0.7574     -0.5261     -0.2138       0.000    
  44    0.000     -0.2361     -0.5912     -0.8874      -1.097      -1.226      -1.294      -1.338      -1.380      -1.417    
       -1.451      -1.481      -1.507      -1.526      -1.537      -1.537      -1.528      -1.508      -1.480      -1.449    
       -1.415      -1.380      -1.346      -1.311      -1.277      -1.244      -1.212      -1.180      -1.149      -1.118    
       -1.089      -1.060      -1.032      -1.005     -0.9645     -0.8881     -0.7495     -0.5214     -0.2122       0.000    
  45    0.000     -0.2350     -0.5884     -0.8841      -1.097      -1.232      -1.307      -1.357      -1.402      -1.439    
       -1.470      -1.500      -1.526      -1.543      -1.545      -1.536      -1.518      -1.494      -1.465      -1.433    
       -1.399      -1.364      -1.329      -1.295      -1.261      -1.228      -1.196      -1.165      -1.134      -1.104    
       -1.075      -1.047      -1.019     -0.9920     -0.9525     -0.8774     -0.7412     -0.5165     -0.2104       0.000    
  46    0.000     -0.2337     -0.5851     -0.8795      -1.094      -1.237      -1.321      -1.380      -1.433      -1.465    
       -1.493      -1.522      -1.553      -1.575      -1.565      -1.542      -1.515      -1.485      -1.452      -1.418    
       -1.383      -1.348      -1.313      -1.278      -1.245      -1.212      -1.180      -1.149      -1.118      -1.089    
       -1.060      -1.032      -1.005     -0.9788     -0.9400     -0.8663     -0.7326     -0.5113     -0.2085       0.000    
  47    0.000     -0.2322     -0.5813     -0.8737      -1.089      -1.237      -1.333      -1.408      -1.486      -1.497    
       -1.512      -1.544      -1.590      -1.639      -1.598      -1.554      -1.515      -1.478      -1.442      -1.405    
       -1.368      -1.331      -1.296      -1.261      -1.227      -1.194      -1.163      -1.132      -1.102      -1.073    
       -1.045      -1.018     -0.9910     -0.9650     -0.9270     -0.8547     -0.7235     -0.5059     -0.2065       0.000    
  48    0.000     -0.2306     -0.5770     -0.8665      -1.080      -1.229      -1.334      -1.432      -1.602      -1.522    
       -1.517      -1.550      -1.624      -1.787      -1.633      -1.560      -1.513      -1.472      -1.431      -1.391    
       -1.352      -1.314      -1.278      -1.243      -1.209      -1.176      -1.145      -1.115      -1.085      -1.057    
       -1.029      -1.002     -0.9761     -0.9507     -0.9135     -0.8427     -0.7141     -0.5001     -0.2044       0.000    
  49    0.000     -0.2288     -0.5722     -0.8579      -1.067      -1.212      -1.307      -1.381      -1.458      -1.468    
       -1.484      -1.516      -1.564      -1.616      -1.580      -1.541      -1.505      -1.464      -1.420      -1.377    
       -1.335      -1.296      -1.259      -1.223      -1.189      -1.157      -1.126      -1.096      -1.067      -1.040    
       -1.013     -0.9862     -0.9607     -0.9358     -0.8994     -0.8302     -0.7043     -0.4942     -0.2022       0.000    
  50    0.000     -0.2269     -0.5669     -0.8481      -1.052      -1.188      -1.269      -1.325      -1.377      -1.407    
       -1.434      -1.465      -1.499      -1.528      -1.529      -1.520      -1.503      -1.460      -1.410      -1.361    
       -1.317      -1.276      -1.238      -1.202      -1.169      -1.137      -1.106      -1.077      -1.049      -1.022    
      -0.9952     -0.9696     -0.9446     -0.9204     -0.8849     -0.8173     -0.6942     -0.4880     -0.1998       0.000    
  51    0.000     -0.2248     -0.5611     -0.8371      -1.034      -1.159      -1.229      -1.275      -1.317      -1.351    
       -1.381      -1.410      -1.440      -1.467      -1.487      -1.508      -1.526      -1.461      -1.397      -1.342    
       -1.294      -1.252      -1.214      -1.179      -1.146      -1.115      -1.085      -1.057      -1.029      -1.003    
      -0.9773     -0.9523     -0.9280     -0.9044     -0.8699     -0.8040     -0.6838     -0.4815     -0.1974       0.000    
  52    0.000     -0.2226     -0.5548     -0.8249      -1.013      -1.128      -1.189      -1.228      -1.265      -1.298    
       -1.328      -1.356      -1.384      -1.413      -1.445      -1.500      -1.626      -1.463      -1.375      -1.315    
       -1.267      -1.225      -1.188      -1.154      -1.122      -1.092      -1.063      -1.036      -1.009     -0.9835    
      -0.9587     -0.9345     -0.9109     -0.8880     -0.8544     -0.7903     -0.6730     -0.4749     -0.1948       0.000    
  53    0.000     -0.2202     -0.5481     -0.8117     -0.9911      -1.096      -1.150      -1.185      -1.218      -1.248    
       -1.276      -1.303      -1.328      -1.354      -1.381      -1.414      -1.443      -1.385      -1.326      -1.275    
       -1.232      -1.194      -1.159      -1.127      -1.096      -1.068      -1.040      -1.014     -0.9882     -0.9635    
      -0.9394     -0.9161     -0.8933     -0.8711     -0.8385     -0.7763     -0.6620     -0.4680     -0.1922       0.000    
  54    0.000     -0.2165     -0.5375     -0.7906     -0.9562      -1.048      -1.093      -1.123      -1.151      -1.177    
       -1.201      -1.224      -1.244      -1.263      -1.279      -1.289      -1.289      -1.269      -1.239      -1.206    
       -1.173      -1.142      -1.112      -1.083      -1.056      -1.029      -1.004     -0.9795     -0.9556     -0.9324    
      -0.9098     -0.8877     -0.8662     -0.8451     -0.8141     -0.7548     -0.6451     -0.4575     -0.1881       0.000    
  55    0.000     -0.2082     -0.5138     -0.7441     -0.8825     -0.9526     -0.9860      -1.007      -1.027      -1.046    
       -1.063      -1.077      -1.089      -1.099      -1.104      -1.106      -1.103      -1.095      -1.083      -1.067    
       -1.049      -1.030      -1.010     -0.9892     -0.9686     -0.9479     -0.9274     -0.9071     -0.8871     -0.8673    
      -0.8478     -0.8286     -0.8096     -0.7910     -0.7634     -0.7100     -0.6099     -0.4353     -0.1794       0.000    
  56    0.000     -0.1888     -0.4591     -0.6418     -0.7356     -0.7781     -0.7972     -0.8091     -0.8199     -0.8297    
      -0.8381     -0.8452     -0.8508     -0.8549     -0.8572     -0.8578     -0.8567     -0.8538     -0.8493     -0.8432    
      -0.8359     -0.8273     -0.8177     -0.8072     -0.7960     -0.7842     -0.7719     -0.7591     -0.7461     -0.7328    
      -0.7193     -0.7057     -0.6920     -0.6782     -0.6575     -0.6162     -0.5355     -0.3874     -0.1600       0.000    
  57    0.000     -0.1413     -0.3354     -0.4417     -0.4870     -0.5058     -0.5139     -0.5188     -0.5233     -0.5272    
      -0.5307     -0.5335     -0.5358     -0.5375     -0.5387     -0.5392     -0.5391     -0.5385     -0.5373     -0.5355    
      -0.5331     -0.5303     -0.5269     -0.5230     -0.5188     -0.5140     -0.5089     -0.5035     -0.4977     -0.4916    
      -0.4852     -0.4785     -0.4716     -0.4645     -0.4535     -0.4307     -0.3824     -0.2840     -0.1157       0.000    
  58    0.000     -3.4271E-02 -0.1075     -0.1410     -0.1539     -0.1590     -0.1612     -0.1625     -0.1637     -0.1648    
      -0.1657     -0.1665     -0.1671     -0.1676     -0.1679     -0.1681     -0.1682     -0.1680     -0.1678     -0.1674    
      -0.1669     -0.1662     -0.1654     -0.1644     -0.1633     -0.1621     -0.1608     -0.1593     -0.1577     -0.1560    
      -0.1542     -0.1523     -0.1503     -0.1482     -0.1449     -0.1378     -0.1220     -8.6400E-02 -1.9101E-02   0.000    
  59    0.000      8.8738E-02  0.1022      0.1042      0.1047      0.1050      0.1051      0.1052      0.1053      0.1053    
       0.1054      0.1055      0.1056      0.1057      0.1058      0.1059      0.1060      0.1061      0.1062      0.1063    
       0.1065      0.1066      0.1067      0.1068      0.1070      0.1071      0.1073      0.1074      0.1075      0.1077    
       0.1078      0.1079      0.1081      0.1082      0.1084      0.1087      0.1091      0.1083      9.4383E-02   0.000    
  60    0.000      0.1634      0.2175      0.2338      0.2396      0.2419      0.2429      0.2435      0.2441      0.2446    
       0.2451      0.2456      0.2460      0.2463      0.2466      0.2469      0.2471      0.2473      0.2474      0.2475    
       0.2475      0.2475      0.2474      0.2473      0.2472      0.2470      0.2467      0.2464      0.2461      0.2457    
       0.2453      0.2448      0.2443      0.2437      0.2428      0.2407      0.2352      0.2192      0.1652       0.000    
  61    0.000      0.1950      0.2647      0.2863      0.2940      0.2970      0.2984      0.2992      0.3000      0.3007    
       0.3013      0.3019      0.3024      0.3029      0.3033      0.3036      0.3038      0.3040      0.3042      0.3043    
       0.3043      0.3042      0.3041      0.3039      0.3037      0.3034      0.3030      0.3026      0.3021      0.3015    
       0.3009      0.3002      0.2995      0.2987      0.2974      0.2944      0.2868      0.2653      0.1957       0.000    
1
              HEAD IN LAYER   3 AT END OF TIME STEP   1 IN STRESS PERIOD    1
  ---------------------------------------------------------------------------

            1           2           3           4           5           6           7           8           9          10
           11          12          13          14          15          16          17          18          19          20
           21          22          23          24          25          26          27          28          29          30
           31          32          33          34          35          36          37          38          39          40
 ........................................................................................................................
   1    0.000      0.2023      0.2752      0.2978      0.3058      0.3090      0.3104      0.3112      0.3120      0.3127    
       0.3134      0.3140      0.3145      0.3150      0.3154      0.3157      0.3160      0.3161      0.3163      0.3163    
       0.3163      0.3163      0.3161      0.3159      0.3156      0.3153      0.3149      0.3144      0.3139      0.3133    
       0.3126      0.3119      0.3111      0.3102      0.3088      0.3056      0.2976      0.2749      0.2020       0.000    
   2    0.000      0.1743      0.2332      0.2509      0.2571      0.2595      0.2606      0.2612      0.2618      0.2624    
       0.2629      0.2633      0.2637      0.2640      0.2643      0.2646      0.2648      0.2649      0.2650      0.2650    
       0.2650      0.2649      0.2648      0.2646      0.2644      0.2642      0.2638      0.2635      0.2630      0.2626    
       0.2620      0.2615      0.2608      0.2601      0.2590      0.2565      0.2502      0.2323      0.1735       0.000    
   3    0.000      0.1086      0.1316      0.1362      0.1373      0.1377      0.1378      0.1379      0.1379      0.1380    
       0.1380      0.1380      0.1381      0.1381      0.1381      0.1380      0.1380      0.1380      0.1379      0.1379    
       0.1378      0.1377      0.1377      0.1376      0.1375      0.1374      0.1373      0.1371      0.1370      0.1369    
       0.1367      0.1366      0.1364      0.1362      0.1360      0.1353      0.1337      0.1286      0.1060       0.000    
   4    0.000      3.3901E-04 -4.8859E-02 -7.4802E-02 -8.6174E-02 -9.1204E-02 -9.3524E-02 -9.5000E-02 -9.6402E-02 -9.7728E-02
      -9.8974E-02 -0.1001     -0.1012     -0.1022     -0.1031     -0.1039     -0.1046     -0.1052     -0.1057     -0.1061    
      -0.1064     -0.1066     -0.1067     -0.1067     -0.1066     -0.1063     -0.1060     -0.1055     -0.1050     -0.1043    
      -0.1035     -0.1027     -0.1017     -0.1006     -9.8907E-02 -9.4887E-02 -8.4912E-02 -5.9490E-02 -6.2095E-03   0.000    
   5    0.000     -9.7863E-02 -0.2393     -0.3165     -0.3526     -0.3693     -0.3772     -0.3822     -0.3871     -0.3918    
      -0.3963     -0.4005     -0.4045     -0.4082     -0.4117     -0.4148     -0.4177     -0.4202     -0.4224     -0.4242    
      -0.4256     -0.4267     -0.4274     -0.4276     -0.4275     -0.4269     -0.4258     -0.4244     -0.4225     -0.4202    
      -0.4175     -0.4143     -0.4108     -0.4069     -0.4005     -0.3857     -0.3499     -0.2652     -0.1073       0.000    
   6    0.000     -0.1468     -0.3468     -0.4663     -0.5270     -0.5566     -0.5711     -0.5807     -0.5901     -0.5992    
      -0.6082     -0.6169     -0.6254     -0.6335     -0.6413     -0.6488     -0.6557     -0.6622     -0.6682     -0.6735    
      -0.6782     -0.6821     -0.6852     -0.6874     -0.6886     -0.6887     -0.6877     -0.6855     -0.6820     -0.6773    
      -0.6715     -0.6645     -0.6565     -0.6477     -0.6332     -0.6005     -0.5273     -0.3813     -0.1552       0.000    
   7    0.000     -0.1696     -0.4005     -0.5450     -0.6216     -0.6602     -0.6795     -0.6924     -0.7052     -0.7179    
      -0.7305     -0.7430     -0.7554     -0.7676     -0.7796     -0.7914     -0.8029     -0.8141     -0.8248     -0.8352    
      -0.8449     -0.8540     -0.8623     -0.8694     -0.8752     -0.8792     -0.8809     -0.8798     -0.8754     -0.8675    
      -0.8565     -0.8428     -0.8273     -0.8104     -0.7838     -0.7283     -0.6205     -0.4358     -0.1762       0.000    
   8    0.000     -0.1803     -0.4267     -0.5844     -0.6697     -0.7133     -0.7353     -0.7500     -0.7647     -0.7794    
      -0.7942     -0.8089     -0.8236     -0.8382     -0.8527     -0.8672     -0.8816     -0.8958     -0.9099     -0.9239    
      -0.9377     -0.9514     -0.9649     -0.9782     -0.9910      -1.003      -1.013      -1.018      -1.015      -1.002    
      -0.9810     -0.9561     -0.9299     -0.9035     -0.8646     -0.7918     -0.6644     -0.4608     -0.1856       0.000    
   9    0.000     -0.1855     -0.4395     -0.6040     -0.6938     -0.7400     -0.7634     -0.7790     -0.7948     -0.8105    
      -0.8264     -0.8422     -0.8581     -0.8740     -0.8898     -0.9057     -0.9215     -0.9374     -0.9532     -0.9690    
      -0.9849      -1.001      -1.017      -1.034      -1.052      -1.071      -1.092      -1.111      -1.118      -1.092    
       -1.055      -1.017     -0.9818     -0.9489     -0.9029     -0.8216     -0.6850     -0.4725     -0.1900       0.000    
  10    0.000     -0.1889     -0.4480     -0.6170     -0.7098     -0.7578     -0.7821     -0.7984     -0.8148     -0.8313    
      -0.8479     -0.8645     -0.8812     -0.8979     -0.9147     -0.9315     -0.9483     -0.9652     -0.9821     -0.9991    
       -1.016      -1.034      -1.052      -1.071      -1.092      -1.116      -1.146      -1.184      -1.220      -1.163    
       -1.105      -1.056      -1.014     -0.9769     -0.9268     -0.8404     -0.6983     -0.4801     -0.1929       0.000    
  11    0.000     -0.1922     -0.4563     -0.6300     -0.7258     -0.7756     -0.8008     -0.8178     -0.8349     -0.8521    
      -0.8694     -0.8869     -0.9044     -0.9219     -0.9396     -0.9574     -0.9752     -0.9931      -1.011      -1.029    
       -1.047      -1.066      -1.085      -1.105      -1.128      -1.155      -1.193      -1.260      -1.424      -1.236    
       -1.147      -1.088      -1.041      -1.001     -0.9484     -0.8581     -0.7109     -0.4874     -0.1956       0.000    
  12    0.000     -0.1954     -0.4646     -0.6429     -0.7418     -0.7933     -0.8196     -0.8372     -0.8550     -0.8729    
      -0.8910     -0.9092     -0.9275     -0.9460     -0.9645     -0.9832      -1.002      -1.021      -1.040      -1.059    
       -1.078      -1.098      -1.118      -1.138      -1.159      -1.183      -1.212      -1.247      -1.280      -1.220    
       -1.159      -1.107      -1.062      -1.022     -0.9676     -0.8745     -0.7229     -0.4943     -0.1982       0.000    
  13    0.000     -0.1985     -0.4727     -0.6556     -0.7576     -0.8110     -0.8382     -0.8565     -0.8750     -0.8937    
      -0.9125     -0.9315     -0.9507     -0.9700     -0.9895      -1.009      -1.029      -1.049      -1.069      -1.089    
       -1.109      -1.130      -1.150      -1.169      -1.188      -1.207      -1.223      -1.237      -1.237      -1.205    
       -1.162      -1.118      -1.077      -1.038     -0.9843     -0.8895     -0.7342     -0.5010     -0.2008       0.000    
  14    0.000     -0.2016     -0.4806     -0.6682     -0.7734     -0.8286     -0.8568     -0.8758     -0.8950     -0.9144    
      -0.9340     -0.9538     -0.9738     -0.9940      -1.014      -1.035      -1.056      -1.077      -1.098      -1.119    
       -1.140      -1.162      -1.182      -1.201      -1.218      -1.231      -1.239      -1.239      -1.228      -1.202    
       -1.166      -1.128      -1.089      -1.052     -0.9989     -0.9033     -0.7448     -0.5073     -0.2031       0.000    
[...]
       -1.511      -1.587      -1.744      -1.579      -1.494      -1.438      -1.391      -1.349      -1.309      -1.270    
       -1.233      -1.197      -1.161      -1.127      -1.076     -0.9820     -0.8149     -0.5539     -0.2217       0.000    
  27    0.000     -0.2317     -0.5659     -0.8133     -0.9603      -1.039      -1.080      -1.108      -1.137      -1.165    
       -1.194      -1.224      -1.254      -1.285      -1.316      -1.347      -1.379      -1.411      -1.443      -1.478    
       -1.515      -1.558      -1.597      -1.542      -1.484      -1.434      -1.388      -1.346      -1.307      -1.268    
       -1.231      -1.195      -1.160      -1.126      -1.076     -0.9824     -0.8161     -0.5552     -0.2224       0.000    
  28    0.000     -0.2332     -0.5707     -0.8223     -0.9726      -1.054      -1.096      -1.124      -1.153      -1.182    
       -1.212      -1.243      -1.273      -1.305      -1.336      -1.368      -1.400      -1.431      -1.461      -1.489    
       -1.513      -1.532      -1.537      -1.508      -1.467      -1.424      -1.382      -1.342      -1.303      -1.265    
       -1.228      -1.193      -1.158      -1.124      -1.075     -0.9821     -0.8167     -0.5561     -0.2229       0.000    
  29    0.000     -0.2345     -0.5750     -0.8309     -0.9845      -1.067      -1.110      -1.139      -1.169      -1.199    
       -1.230      -1.261      -1.292      -1.324      -1.357      -1.390      -1.422      -1.453      -1.481      -1.504    
       -1.517      -1.520      -1.512      -1.487      -1.452      -1.414      -1.375      -1.336      -1.298      -1.261    
       -1.225      -1.190      -1.155      -1.122      -1.073     -0.9811     -0.8166     -0.5567     -0.2233       0.000    
  30    0.000     -0.2357     -0.5790     -0.8390     -0.9960      -1.081      -1.125      -1.154      -1.185      -1.215    
       -1.247      -1.278      -1.311      -1.344      -1.377      -1.411      -1.446      -1.479      -1.508      -1.527    
       -1.530      -1.521      -1.502      -1.475      -1.441      -1.405      -1.367      -1.329      -1.292      -1.256    
       -1.220      -1.186      -1.152      -1.119      -1.071     -0.9793     -0.8160     -0.5568     -0.2235       0.000    
  31    0.000     -0.2367     -0.5827     -0.8467      -1.007      -1.094      -1.139      -1.169      -1.200      -1.231    
       -1.263      -1.296      -1.329      -1.363      -1.397      -1.433      -1.470      -1.508      -1.544      -1.567    
       -1.556      -1.532      -1.502      -1.469      -1.433      -1.396      -1.359      -1.322      -1.286      -1.250    
       -1.215      -1.181      -1.148      -1.115      -1.067     -0.9768     -0.8147     -0.5566     -0.2236       0.000    
  32    0.000     -0.2376     -0.5860     -0.8539      -1.018      -1.106      -1.152      -1.183      -1.215      -1.247    
       -1.279      -1.313      -1.346      -1.381      -1.416      -1.454      -1.494      -1.540      -1.592      -1.641    
       -1.596      -1.548      -1.505      -1.465      -1.426      -1.389      -1.352      -1.315      -1.279      -1.244    
       -1.209      -1.175      -1.142      -1.110      -1.063     -0.9736     -0.8128     -0.5560     -0.2235       0.000    
  33    0.000     -0.2383     -0.5889     -0.8606      -1.028      -1.118      -1.165      -1.197      -1.229      -1.262    
       -1.295      -1.329      -1.363      -1.398      -1.434      -1.471      -1.513      -1.564      -1.643      -1.803    
       -1.640      -1.559      -1.504      -1.460      -1.419      -1.381      -1.344      -1.307      -1.272      -1.237    
       -1.203      -1.169      -1.137      -1.105      -1.058     -0.9697     -0.8104     -0.5550     -0.2233       0.000    
  34    0.000     -0.2389     -0.5914     -0.8667      -1.038      -1.130      -1.178      -1.211      -1.243      -1.277    
       -1.310      -1.345      -1.379      -1.414      -1.449      -1.485      -1.522      -1.562      -1.608      -1.650    
       -1.597      -1.542      -1.494      -1.450      -1.410      -1.372      -1.335      -1.299      -1.264      -1.229    
       -1.195      -1.163      -1.130      -1.099      -1.053     -0.9652     -0.8074     -0.5537     -0.2230       0.000    
  35    0.000     -0.2393     -0.5935     -0.8723      -1.047      -1.142      -1.190      -1.224      -1.257      -1.291    
       -1.326      -1.360      -1.395      -1.430      -1.464      -1.497      -1.527      -1.555      -1.576      -1.584    
       -1.557      -1.519      -1.478      -1.438      -1.399      -1.362      -1.325      -1.290      -1.255      -1.221    
       -1.188      -1.155      -1.123      -1.092      -1.047     -0.9601     -0.8038     -0.5520     -0.2225       0.000    
  36    0.000     -0.2396     -0.5951     -0.8772      -1.055      -1.152      -1.202      -1.236      -1.271      -1.305    
       -1.340      -1.376      -1.411      -1.447      -1.481      -1.512      -1.537      -1.553      -1.559      -1.553    
       -1.530      -1.498      -1.462      -1.424      -1.387      -1.351      -1.315      -1.280      -1.245      -1.212    
       -1.179      -1.147      -1.116      -1.085      -1.040     -0.9543     -0.7998     -0.5499     -0.2219       0.000    
  37    0.000     -0.2397     -0.5963     -0.8814      -1.063      -1.163      -1.214      -1.249      -1.284      -1.319    
       -1.355      -1.391      -1.428      -1.465      -1.501      -1.532      -1.555      -1.561      -1.554      -1.538    
       -1.512      -1.481      -1.446      -1.411      -1.375      -1.339      -1.304      -1.269      -1.235      -1.202    
       -1.170      -1.138      -1.107      -1.077      -1.033     -0.9480     -0.7952     -0.5475     -0.2211       0.000    
  38    0.000     -0.2397     -0.5970     -0.8849      -1.071      -1.173      -1.225      -1.261      -1.296      -1.333    
       -1.369      -1.406      -1.445      -1.484      -1.525      -1.563      -1.589      -1.581      -1.559      -1.532    
       -1.501      -1.467      -1.433      -1.397      -1.362      -1.327      -1.292      -1.258      -1.225      -1.192    
       -1.160      -1.129      -1.098      -1.068      -1.025     -0.9410     -0.7900     -0.5447     -0.2202       0.000    
  39    0.000     -0.2395     -0.5973     -0.8876      -1.078      -1.183      -1.237      -1.273      -1.309      -1.346    
       -1.383      -1.420      -1.460      -1.503      -1.551      -1.606      -1.658      -1.616      -1.570      -1.529    
       -1.491      -1.455      -1.420      -1.384      -1.349      -1.314      -1.280      -1.247      -1.214      -1.181    
       -1.150      -1.119      -1.089      -1.059      -1.016     -0.9336     -0.7844     -0.5417     -0.2192       0.000    
  40    0.000     -0.2392     -0.5971     -0.8895      -1.084      -1.192      -1.247      -1.285      -1.321      -1.358    
       -1.395      -1.433      -1.472      -1.516      -1.570      -1.652      -1.814      -1.654      -1.575      -1.523    
       -1.481      -1.443      -1.406      -1.371      -1.336      -1.301      -1.267      -1.234      -1.202      -1.170    
       -1.139      -1.108      -1.079      -1.049      -1.007     -0.9255     -0.7784     -0.5382     -0.2181       0.000    
  41    0.000     -0.2387     -0.5964     -0.8905      -1.089      -1.201      -1.258      -1.296      -1.334      -1.371    
       -1.407      -1.444      -1.480      -1.519      -1.562      -1.610      -1.655      -1.606      -1.554      -1.508    
       -1.467      -1.429      -1.392      -1.357      -1.322      -1.288      -1.254      -1.222      -1.189      -1.158    
       -1.127      -1.097      -1.068      -1.039     -0.9970     -0.9169     -0.7718     -0.5345     -0.2168       0.000    
  42    0.000     -0.2380     -0.5952     -0.8906      -1.093      -1.210      -1.270      -1.309      -1.347      -1.384    
       -1.420      -1.454      -1.487      -1.518      -1.548      -1.573      -1.584      -1.561      -1.526      -1.488    
       -1.450      -1.413      -1.377      -1.342      -1.308      -1.274      -1.241      -1.208      -1.176      -1.145    
       -1.115      -1.085      -1.056      -1.028     -0.9867     -0.9078     -0.7648     -0.5305     -0.2154       0.000    
  43    0.000     -0.2371     -0.5934     -0.8896      -1.096      -1.218      -1.281      -1.323      -1.362      -1.399    
       -1.434      -1.466      -1.495      -1.519      -1.538      -1.549      -1.547      -1.529      -1.501      -1.467    
       -1.432      -1.397      -1.362      -1.327      -1.293      -1.259      -1.226      -1.194      -1.163      -1.132    
       -1.102      -1.073      -1.045      -1.017     -0.9759     -0.8982     -0.7574     -0.5261     -0.2139       0.000    
  44    0.000     -0.2361     -0.5912     -0.8875      -1.097      -1.226      -1.294      -1.338      -1.380      -1.417    
       -1.451      -1.481      -1.507      -1.527      -1.537      -1.537      -1.528      -1.508      -1.481      -1.449    
       -1.415      -1.380      -1.346      -1.311      -1.277      -1.244      -1.212      -1.180      -1.149      -1.118    
       -1.089      -1.060      -1.032      -1.005     -0.9645     -0.8881     -0.7495     -0.5215     -0.2122       0.000    
  45    0.000     -0.2350     -0.5884     -0.8841      -1.097      -1.232      -1.307      -1.357      -1.402      -1.439    
       -1.470      -1.500      -1.526      -1.543      -1.545      -1.536      -1.518      -1.494      -1.465      -1.433    
       -1.399      -1.364      -1.329      -1.295      -1.261      -1.228      -1.196      -1.165      -1.134      -1.104    
       -1.075      -1.047      -1.019     -0.9920     -0.9525     -0.8775     -0.7413     -0.5165     -0.2104       0.000    
  46    0.000     -0.2337     -0.5852     -0.8796      -1.094      -1.237      -1.321      -1.380      -1.433      -1.465    
       -1.493      -1.522      -1.553      -1.575      -1.565      -1.542      -1.515      -1.485      -1.452      -1.418    
       -1.383      -1.348      -1.313      -1.278      -1.245      -1.212      -1.180      -1.149      -1.118      -1.089    
       -1.060      -1.032      -1.005     -0.9788     -0.9400     -0.8663     -0.7326     -0.5113     -0.2085       0.000    
  47    0.000     -0.2322     -0.5814     -0.8737      -1.089      -1.237      -1.333      -1.408      -1.486      -1.497    
       -1.513      -1.544      -1.590      -1.639      -1.598      -1.554      -1.515      -1.478      -1.442      -1.405    
       -1.368      -1.331      -1.296      -1.261      -1.227      -1.195      -1.163      -1.132      -1.102      -1.073    
       -1.045      -1.018     -0.9910     -0.9650     -0.9270     -0.8548     -0.7235     -0.5059     -0.2065       0.000    
  48    0.000     -0.2306     -0.5771     -0.8665      -1.080      -1.229      -1.334      -1.432      -1.602      -1.522    
       -1.517      -1.550      -1.625      -1.788      -1.633      -1.560      -1.513      -1.472      -1.431      -1.391    
       -1.352      -1.314      -1.278      -1.243      -1.209      -1.176      -1.145      -1.115      -1.085      -1.057    
       -1.029      -1.002     -0.9761     -0.9507     -0.9135     -0.8427     -0.7141     -0.5002     -0.2044       0.000    
  49    0.000     -0.2288     -0.5722     -0.8580      -1.068      -1.212      -1.307      -1.381      -1.458      -1.468    
       -1.484      -1.516      -1.564      -1.616      -1.580      -1.541      -1.505      -1.464      -1.421      -1.377    
       -1.335      -1.296      -1.259      -1.223      -1.189      -1.157      -1.126      -1.096      -1.068      -1.040    
       -1.013     -0.9863     -0.9607     -0.9358     -0.8994     -0.8302     -0.7043     -0.4942     -0.2022       0.000    
  50    0.000     -0.2269     -0.5669     -0.8481      -1.052      -1.188      -1.269      -1.325      -1.377      -1.407    
       -1.434      -1.465      -1.499      -1.528      -1.529      -1.520      -1.503      -1.460      -1.410      -1.361    
       -1.317      -1.276      -1.238      -1.202      -1.169      -1.137      -1.106      -1.077      -1.049      -1.022    
      -0.9952     -0.9696     -0.9447     -0.9204     -0.8849     -0.8173     -0.6942     -0.4880     -0.1998       0.000    
  51    0.000     -0.2248     -0.5611     -0.8371      -1.034      -1.159      -1.229      -1.275      -1.317      -1.351    
       -1.381      -1.410      -1.440      -1.467      -1.487      -1.508      -1.526      -1.462      -1.397      -1.342    
       -1.294      -1.252      -1.214      -1.179      -1.146      -1.115      -1.085      -1.057      -1.029      -1.003    
      -0.9773     -0.9523     -0.9281     -0.9044     -0.8699     -0.8040     -0.6838     -0.4816     -0.1974       0.000    
  52    0.000     -0.2226     -0.5549     -0.8249      -1.013      -1.128      -1.189      -1.228      -1.265      -1.298    
       -1.328      -1.356      -1.384      -1.413      -1.445      -1.500      -1.627      -1.463      -1.375      -1.315    
       -1.267      -1.225      -1.188      -1.154      -1.122      -1.092      -1.063      -1.036      -1.009     -0.9836    
      -0.9587     -0.9345     -0.9109     -0.8880     -0.8544     -0.7904     -0.6731     -0.4749     -0.1949       0.000    
  53    0.000     -0.2202     -0.5482     -0.8117     -0.9911      -1.096      -1.150      -1.185      -1.218      -1.248    
       -1.276      -1.303      -1.328      -1.354      -1.381      -1.414      -1.443      -1.385      -1.326      -1.275    
       -1.232      -1.194      -1.159      -1.127      -1.097      -1.068      -1.040      -1.014     -0.9882     -0.9635    
      -0.9395     -0.9161     -0.8933     -0.8711     -0.8385     -0.7763     -0.6621     -0.4681     -0.1922       0.000    
  54    0.000     -0.2165     -0.5375     -0.7906     -0.9562      -1.048      -1.093      -1.123      -1.151      -1.177    
       -1.201      -1.224      -1.244      -1.263      -1.279      -1.289      -1.289      -1.269      -1.239      -1.206    
       -1.173      -1.142      -1.112      -1.083      -1.056      -1.029      -1.004     -0.9795     -0.9556     -0.9324    
      -0.9098     -0.8877     -0.8662     -0.8451     -0.8142     -0.7548     -0.6451     -0.4575     -0.1881       0.000    
  55    0.000     -0.2082     -0.5138     -0.7441     -0.8825     -0.9527     -0.9860      -1.007      -1.027      -1.046    
       -1.063      -1.077      -1.089      -1.099      -1.105      -1.106      -1.103      -1.095      -1.083      -1.067    
       -1.049      -1.030      -1.010     -0.9892     -0.9686     -0.9480     -0.9275     -0.9072     -0.8871     -0.8673    
      -0.8478     -0.8286     -0.8096     -0.7910     -0.7634     -0.7100     -0.6099     -0.4353     -0.1794       0.000    
  56    0.000     -0.1888     -0.4591     -0.6418     -0.7357     -0.7781     -0.7972     -0.8091     -0.8200     -0.8297    
      -0.8382     -0.8453     -0.8509     -0.8549     -0.8572     -0.8578     -0.8567     -0.8538     -0.8493     -0.8433    
      -0.8359     -0.8273     -0.8177     -0.8072     -0.7960     -0.7842     -0.7719     -0.7592     -0.7461     -0.7328    
      -0.7193     -0.7057     -0.6920     -0.6782     -0.6575     -0.6162     -0.5355     -0.3875     -0.1601       0.000    
  57    0.000     -0.1414     -0.3355     -0.4417     -0.4870     -0.5058     -0.5139     -0.5188     -0.5233     -0.5273    
      -0.5307     -0.5336     -0.5359     -0.5376     -0.5387     -0.5392     -0.5392     -0.5385     -0.5373     -0.5355    
      -0.5331     -0.5303     -0.5269     -0.5231     -0.5188     -0.5141     -0.5090     -0.5035     -0.4977     -0.4916    
      -0.4852     -0.4785     -0.4716     -0.4645     -0.4536     -0.4307     -0.3825     -0.2840     -0.1157       0.000    
  58    0.000     -3.4297E-02 -0.1076     -0.1410     -0.1539     -0.1590     -0.1612     -0.1625     -0.1637     -0.1648    
      -0.1657     -0.1665     -0.1671     -0.1676     -0.1679     -0.1681     -0.1682     -0.1681     -0.1678     -0.1674    
      -0.1669     -0.1662     -0.1654     -0.1645     -0.1634     -0.1622     -0.1608     -0.1594     -0.1578     -0.1561    
      -0.1543     -0.1524     -0.1503     -0.1482     -0.1449     -0.1378     -0.1220     -8.6427E-02 -1.9127E-02   0.000    
  59    0.000      8.8712E-02  0.1022      0.1041      0.1047      0.1049      0.1051      0.1051      0.1052      0.1053    
       0.1054      0.1055      0.1056      0.1057      0.1058      0.1059      0.1060      0.1061      0.1062      0.1063    
       0.1064      0.1066      0.1067      0.1068      0.1070      0.1071      0.1072      0.1074      0.1075      0.1076    
       0.1078      0.1079      0.1080      0.1082      0.1083      0.1087      0.1091      0.1083      9.4357E-02   0.000    
  60    0.000      0.1634      0.2174      0.2338      0.2395      0.2419      0.2429      0.2435      0.2441      0.2446    
       0.2451      0.2455      0.2459      0.2463      0.2466      0.2469      0.2471      0.2472      0.2474      0.2474    
       0.2475      0.2475      0.2474      0.2473      0.2471      0.2470      0.2467      0.2464      0.2461      0.2457    
       0.2453      0.2448      0.2443      0.2437      0.2428      0.2406      0.2351      0.2192      0.1652       0.000    
  61    0.000      0.1950      0.2646      0.2863      0.2939      0.2970      0.2984      0.2992      0.2999      0.3007    
       0.3013      0.3019      0.3024      0.3028      0.3032      0.3036      0.3038      0.3040      0.3042      0.3042    
       0.3042      0.3042      0.3041      0.3039      0.3037      0.3034      0.3030      0.3026      0.3021      0.3015    
       0.3009      0.3002      0.2995      0.2987      0.2973      0.2943      0.2868      0.2653      0.1957       0.000    
1
  VOLUMETRIC BUDGET FOR ENTIRE MODEL AT END OF TIME STEP    1, STRESS PERIOD   1
  ------------------------------------------------------------------------------

     CUMULATIVE VOLUMES      L**3       RATES FOR THIS TIME STEP      L**3/T
     ------------------                 ------------------------

           IN:                                      IN:
           ---                                      ---
             STORAGE =           0.0000               STORAGE =           0.0000
       CONSTANT HEAD =    31124126.0000         CONSTANT HEAD =       31124.1270
               WELLS =           0.0000                 WELLS =           0.0000
            RECHARGE =   177178800.0000              RECHARGE =      177178.7969

            TOTAL IN =   208302928.0000              TOTAL IN =      208302.9219

          OUT:                                     OUT:
          ----                                     ----
             STORAGE =           0.0000               STORAGE =           0.0000
       CONSTANT HEAD =    60231924.0000         CONSTANT HEAD =       60231.9258
               WELLS =   148071008.0000                 WELLS =      148071.0000
            RECHARGE =           0.0000              RECHARGE =           0.0000

           TOTAL OUT =   208302928.0000             TOTAL OUT =      208302.9219

            IN - OUT =           0.0000              IN - OUT =           0.0000

 PERCENT DISCREPANCY =           0.00     PERCENT DISCREPANCY =           0.00






         TIME SUMMARY AT END OF TIME STEP    1 IN STRESS PERIOD    1
                    SECONDS     MINUTES      HOURS       DAYS        YEARS
                    -----------------------------------------------------------
   TIME STEP LENGTH 8.64000E+07 1.44000E+06  24000.      1000.0      2.7379    
 STRESS PERIOD TIME 8.64000E+07 1.44000E+06  24000.      1000.0      2.7379    
         TOTAL TIME 8.64000E+07 1.44000E+06  24000.      1000.0      2.7379    
1

 Run end date and time (yyyy/mm/dd hh:mm:ss): 2019/07/17 17:22:20
 Elapsed run time:  0.080 Seconds

