                                  MODFLOW-2005     
      U.S. GEOLOGICAL SURVEY MODULAR FINITE-DIFFERENCE GROUND-WATER FLOW MODEL
                            VERSION 1.12.00 2/3/2017

 LIST FILE: BoxModel.list
                         UNIT    2

 OPENING BoxModel.dis
 FILE TYPE:DIS   UNIT   11   STATUS:OLD    
 FORMAT:FORMATTED              ACCESS:SEQUENTIAL          

 OPENING BoxModel.bas
 FILE TYPE:BAS6   UNIT   13   STATUS:OLD    
 FORMAT:FORMATTED              ACCESS:SEQUENTIAL          

 OPENING BoxModel.lpf
 FILE TYPE:LPF   UNIT   15   STATUS:OLD    
 FORMAT:FORMATTED              ACCESS:SEQUENTIAL          

 OPENING BoxModel.pcg
 FILE TYPE:PCG   UNIT   27   STATUS:OLD    
 FORMAT:FORMATTED              ACCESS:SEQUENTIAL          

 OPENING BoxModel.ghb
 FILE TYPE:GHB   UNIT   23   STATUS:OLD    
 FORMAT:FORMATTED              ACCESS:SEQUENTIAL          

 OPENING BoxModel.wel
 FILE TYPE:WEL   UNIT   20   STATUS:OLD    
 FORMAT:FORMATTED              ACCESS:SEQUENTIAL          

 OPENING BoxModel.oc
 FILE TYPE:OC   UNIT   14   STATUS:OLD    
 FORMAT:FORMATTED              ACCESS:SEQUENTIAL          

 OPENING BoxModel.lmt6
 FILE TYPE:LMT6   UNIT   30   STATUS:OLD    
 FORMAT:FORMATTED              ACCESS:SEQUENTIAL          

 OPENING BoxModel.cbc
 FILE TYPE:DATA(BINARY)   UNIT   53   STATUS:REPLACE
 FORMAT:UNFORMATTED            ACCESS:STREAM              

 OPENING BoxModel.hds
 FILE TYPE:DATA(BINARY)   UNIT   51   STATUS:REPLACE
 FORMAT:UNFORMATTED            ACCESS:STREAM              

 OPENING BoxModel.ddn
 FILE TYPE:DATA(BINARY)   UNIT   52   STATUS:REPLACE
 FORMAT:UNFORMATTED            ACCESS:STREAM              

 BAS -- BASIC PACKAGE, VERSION 7, 5/2/2005 INPUT READ FROM UNIT   13
 
 MODFLOW was compiled using mixed precision
 Precision of REAL variables:           6
 Precision of DOUBLE PRECISION variables:          15

 DISCRETIZATION INPUT DATA READ FROM UNIT   11
 # DIS package for  MODFLOW-2005, generated by Flopy.
    5 LAYERS        10 ROWS        10 COLUMNS
    3 STRESS PERIOD(S) IN SIMULATION
 MODEL TIME UNIT IS DAYS
 MODEL LENGTH UNIT IS METERS
  Confining bed flag for each layer:
   0   0   0   0   0

                     DELR =   100.000    

                     DELC =   100.000    

 TOP ELEVATION OF LAYER 1 =   10.0000    

   MODEL LAYER BOTTOM EL. =  -12.0000     FOR LAYER   1

   MODEL LAYER BOTTOM EL. =  -34.0000     FOR LAYER   2

   MODEL LAYER BOTTOM EL. =  -56.0000     FOR LAYER   3

   MODEL LAYER BOTTOM EL. =  -78.0000     FOR LAYER   4

   MODEL LAYER BOTTOM EL. =  -100.000     FOR LAYER   5


 STRESS PERIOD     LENGTH       TIME STEPS     MULTIPLIER FOR DELT    SS FLAG
 ----------------------------------------------------------------------------
        1         1.000000          1                    1.000         SS
        2         100.0000        100                    1.000         TR
        3         100.0000        100                    1.000         TR

 COMBINED STEADY-STATE AND TRANSIENT SIMULATION



 
 # BAS6 package for  MODFLOW-2005, generated by Flopy.                           
 THE FREE FORMAT OPTION HAS BEEN SELECTED



                     BOUNDARY ARRAY FOR LAYER   1
 READING ON UNIT   13 WITH FORMAT: (10I10)             



                     BOUNDARY ARRAY FOR LAYER   2
 READING ON UNIT   13 WITH FORMAT: (10I10)             



                     BOUNDARY ARRAY FOR LAYER   3
 READING ON UNIT   13 WITH FORMAT: (10I10)             



                     BOUNDARY ARRAY FOR LAYER   4
 READING ON UNIT   13 WITH FORMAT: (10I10)             



                     BOUNDARY ARRAY FOR LAYER   5
 READING ON UNIT   13 WITH FORMAT: (10I10)             

 AQUIFER HEAD WILL BE SET TO  -999.99     AT ALL NO-FLOW NODES (IBOUND=0).



                       INITIAL HEAD FOR LAYER   1
 READING ON UNIT   13 WITH FORMAT: (10E15.6)           



                       INITIAL HEAD FOR LAYER   2
 READING ON UNIT   13 WITH FORMAT: (10E15.6)           



                       INITIAL HEAD FOR LAYER   3
 READING ON UNIT   13 WITH FORMAT: (10E15.6)           



                       INITIAL HEAD FOR LAYER   4
 READING ON UNIT   13 WITH FORMAT: (10E15.6)           



                       INITIAL HEAD FOR LAYER   5
 READING ON UNIT   13 WITH FORMAT: (10E15.6)           
 # OC package for  MODFLOW-2005, generated by Flopy.

 OUTPUT CONTROL IS SPECIFIED ONLY AT TIME STEPS FOR WHICH OUTPUT IS DESIRED
 COMPACT CELL-BY-CELL BUDGET FILES WILL BE WRITTEN
 AUXILIARY DATA WILL BE SAVED IN CELL-BY-CELL BUDGET FILES
 HEAD PRINT FORMAT CODE IS   0    DRAWDOWN PRINT FORMAT CODE IS   0
 HEADS WILL BE SAVED ON UNIT   51    DRAWDOWNS WILL BE SAVED ON UNIT   52

 LPF -- LAYER-PROPERTY FLOW PACKAGE, VERSION 7, 5/2/2005
         INPUT READ FROM UNIT   15
 # LPF package for  MODFLOW-2005, generated by Flopy.
 CELL-BY-CELL FLOWS WILL BE SAVED ON UNIT   53
 HEAD AT CELLS THAT CONVERT TO DRY= -1.00000E+30
 No named parameters

   LAYER FLAGS:
 LAYER       LAYTYP        LAYAVG         CHANI        LAYVKA        LAYWET
 ---------------------------------------------------------------------------
    1             1             0     1.000E+00             0             0
    2             0             0     1.000E+00             0             0
    3             0             0     1.000E+00             0             0
    4             0             0     1.000E+00             0             0
    5             0             0     1.000E+00             0             0

   INTERPRETATION OF LAYER FLAGS:
                        INTERBLOCK     HORIZONTAL    DATA IN
         LAYER TYPE   TRANSMISSIVITY   ANISOTROPY   ARRAY VKA   WETTABILITY
 LAYER      (LAYTYP)      (LAYAVG)       (CHANI)      (LAYVKA)      (LAYWET)
 ---------------------------------------------------------------------------
    1   CONVERTIBLE      HARMONIC     1.000E+00    VERTICAL K  NON-WETTABLE
    2      CONFINED      HARMONIC     1.000E+00    VERTICAL K  NON-WETTABLE
    3      CONFINED      HARMONIC     1.000E+00    VERTICAL K  NON-WETTABLE
    4      CONFINED      HARMONIC     1.000E+00    VERTICAL K  NON-WETTABLE
    5      CONFINED      HARMONIC     1.000E+00    VERTICAL K  NON-WETTABLE

 WETTING CAPABILITY IS NOT ACTIVE IN ANY LAYER

    HYD. COND. ALONG ROWS =   1.00000     FOR LAYER   1

      VERTICAL HYD. COND. =   1.00000     FOR LAYER   1

         SPECIFIC STORAGE =  1.000000E-04 FOR LAYER   1

           SPECIFIC YIELD =  0.100000     FOR LAYER   1

    HYD. COND. ALONG ROWS =   1.00000     FOR LAYER   2

      VERTICAL HYD. COND. =   1.00000     FOR LAYER   2

         SPECIFIC STORAGE =  1.000000E-04 FOR LAYER   2

    HYD. COND. ALONG ROWS =   1.00000     FOR LAYER   3

      VERTICAL HYD. COND. =   1.00000     FOR LAYER   3

         SPECIFIC STORAGE =  1.000000E-04 FOR LAYER   3

    HYD. COND. ALONG ROWS =   1.00000     FOR LAYER   4

      VERTICAL HYD. COND. =   1.00000     FOR LAYER   4

         SPECIFIC STORAGE =  1.000000E-04 FOR LAYER   4

    HYD. COND. ALONG ROWS =   1.00000     FOR LAYER   5

      VERTICAL HYD. COND. =   1.00000     FOR LAYER   5

         SPECIFIC STORAGE =  1.000000E-04 FOR LAYER   5

 WEL -- WELL PACKAGE, VERSION 7, 5/2/2005 INPUT READ FROM UNIT   20
 # WEL package for  MODFLOW-2005, generated by Flopy.
 No named parameters
 MAXIMUM OF      1 ACTIVE WELLS AT ONE TIME


     0 Well parameters

 GHB -- GENERAL-HEAD BOUNDARY PACKAGE, VERSION 7, 5/2/2005
         INPUT READ FROM UNIT   23
 # GHB package for  MODFLOW-2005, generated by Flopy.
 No named parameters
 MAXIMUM OF    100 ACTIVE GHB CELLS AT ONE TIME


     0 GHB parameters

 PCG -- CONJUGATE-GRADIENT SOLUTION PACKAGE, VERSION 7, 5/2/2005
 # PCG package for  MODFLOW-2005, generated by Flopy.
 MAXIMUM OF     50 CALLS OF SOLUTION ROUTINE
 MAXIMUM OF     30 INTERNAL ITERATIONS PER CALL TO SOLUTION ROUTINE
 MATRIX PRECONDITIONING TYPE :    1



                                    SOLUTION BY THE CONJUGATE-GRADIENT METHOD
                                   -------------------------------------------
                    MAXIMUM NUMBER OF CALLS TO PCG ROUTINE =       50
                        MAXIMUM ITERATIONS PER CALL TO PCG =       30
                               MATRIX PRECONDITIONING TYPE =        1
        RELAXATION FACTOR (ONLY USED WITH PRECOND. TYPE 1) =    0.10000E+01
 PARAMETER OF POLYNOMIAL PRECOND. = 2 (2) OR IS CALCULATED :        0
                         HEAD CHANGE CRITERION FOR CLOSURE =    0.10000E-04
                     RESIDUAL CHANGE CRITERION FOR CLOSURE =    0.10000E-04
            PCG HEAD AND RESIDUAL CHANGE PRINTOUT INTERVAL =      999
     PRINTING FROM SOLVER IS LIMITED(1) OR SUPPRESSED (>1) =        3
                            STEADY-STATE DAMPING PARAMETER =    0.10000E+01
                               TRANSIENT DAMPING PARAMETER =    0.10000E+01


 ***Link-MT3DMS Package v7***
 OPENING LINK-MT3DMS OUTPUT FILE: mt3d_link.ftl                                                                                                                                                                                           
 ON UNIT NUMBER:    54
 FILE TYPE: UNFORMATTED
 HEADER OPTION: EXTENDED
 ***Link-MT3DMS Package v7***

1
                            STRESS PERIOD NO.    1, LENGTH =   1.000000    
                            -----------------------------------------------

                              NUMBER OF TIME STEPS =     1

                               MULTIPLIER FOR DELT =     1.000

                            INITIAL TIME STEP SIZE =   1.000000    

 WELL NO.  LAYER   ROW   COL   STRESS RATE         
 --------------------------------------------------
      1      2      6      6       0.000    

      1 WELL 

 BOUND. NO. LAYER   ROW   COL     STAGE      CONDUCTANCE         
 ----------------------------------------------------------------
      1      1      1      1       10.00          0.1100E+05
      2      1      1     10       0.000          0.1000E+05
      3      1      2      1       10.00          0.1100E+05
      4      1      2     10       0.000          0.1000E+05
      5      1      3      1       10.00          0.1100E+05
      6      1      3     10       0.000          0.1000E+05
      7      1      4      1       10.00          0.1100E+05
      8      1      4     10       0.000          0.1000E+05
      9      1      5      1       10.00          0.1100E+05
     10      1      5     10       0.000          0.1000E+05
     11      1      6      1       10.00          0.1100E+05
     12      1      6     10       0.000          0.1000E+05
     13      1      7      1       10.00          0.1100E+05
     14      1      7     10       0.000          0.1000E+05
     15      1      8      1       10.00          0.1100E+05
     16      1      8     10       0.000          0.1000E+05
     17      1      9      1       10.00          0.1100E+05
     18      1      9     10       0.000          0.1000E+05
     19      1     10      1       10.00          0.1100E+05
     20      1     10     10       0.000          0.1000E+05
     21      2      1      1       10.00          0.1100E+05
     22      2      1     10       0.000          0.1000E+05
     23      2      2      1       10.00          0.1100E+05
     24      2      2     10       0.000          0.1000E+05
     25      2      3      1       10.00          0.1100E+05
     26      2      3     10       0.000          0.1000E+05
     27      2      4      1       10.00          0.1100E+05
     28      2      4     10       0.000          0.1000E+05
     29      2      5      1       10.00          0.1100E+05
     30      2      5     10       0.000          0.1000E+05
     31      2      6      1       10.00          0.1100E+05
     32      2      6     10       0.000          0.1000E+05
     33      2      7      1       10.00          0.1100E+05
     34      2      7     10       0.000          0.1000E+05
     35      2      8      1       10.00          0.1100E+05
     36      2      8     10       0.000          0.1000E+05
     37      2      9      1       10.00          0.1100E+05
     38      2      9     10       0.000          0.1000E+05
     39      2     10      1       10.00          0.1100E+05
     40      2     10     10       0.000          0.1000E+05
     41      3      1      1       10.00          0.1100E+05
     42      3      1     10       0.000          0.1000E+05
     43      3      2      1       10.00          0.1100E+05
     44      3      2     10       0.000          0.1000E+05
     45      3      3      1       10.00          0.1100E+05
     46      3      3     10       0.000          0.1000E+05
     47      3      4      1       10.00          0.1100E+05
     48      3      4     10       0.000          0.1000E+05
     49      3      5      1       10.00          0.1100E+05
     50      3      5     10       0.000          0.1000E+05
     51      3      6      1       10.00          0.1100E+05
     52      3      6     10       0.000          0.1000E+05
     53      3      7      1       10.00          0.1100E+05
     54      3      7     10       0.000          0.1000E+05
     55      3      8      1       10.00          0.1100E+05
     56      3      8     10       0.000          0.1000E+05
     57      3      9      1       10.00          0.1100E+05
     58      3      9     10       0.000          0.1000E+05
     59      3     10      1       10.00          0.1100E+05
     60      3     10     10       0.000          0.1000E+05
     61      4      1      1       10.00          0.1100E+05
     62      4      1     10       0.000          0.1000E+05
     63      4      2      1       10.00          0.1100E+05
     64      4      2     10       0.000          0.1000E+05
     65      4      3      1       10.00          0.1100E+05
     66      4      3     10       0.000          0.1000E+05
     67      4      4      1       10.00          0.1100E+05
     68      4      4     10       0.000          0.1000E+05
     69      4      5      1       10.00          0.1100E+05
     70      4      5     10       0.000          0.1000E+05
     71      4      6      1       10.00          0.1100E+05
     72      4      6     10       0.000          0.1000E+05
     73      4      7      1       10.00          0.1100E+05
     74      4      7     10       0.000          0.1000E+05
     75      4      8      1       10.00          0.1100E+05
     76      4      8     10       0.000          0.1000E+05
     77      4      9      1       10.00          0.1100E+05
     78      4      9     10       0.000          0.1000E+05
     79      4     10      1       10.00          0.1100E+05
     80      4     10     10       0.000          0.1000E+05
     81      5      1      1       10.00          0.1100E+05
     82      5      1     10       0.000          0.1000E+05
     83      5      2      1       10.00          0.1100E+05
     84      5      2     10       0.000          0.1000E+05
     85      5      3      1       10.00          0.1100E+05
     86      5      3     10       0.000          0.1000E+05
     87      5      4      1       10.00          0.1100E+05
     88      5      4     10       0.000          0.1000E+05
     89      5      5      1       10.00          0.1100E+05
     90      5      5     10       0.000          0.1000E+05
     91      5      6      1       10.00          0.1100E+05
     92      5      6     10       0.000          0.1000E+05
     93      5      7      1       10.00          0.1100E+05
     94      5      7     10       0.000          0.1000E+05
     95      5      8      1       10.00          0.1100E+05
     96      5      8     10       0.000          0.1000E+05
     97      5      9      1       10.00          0.1100E+05
     98      5      9     10       0.000          0.1000E+05
     99      5     10      1       10.00          0.1100E+05
    100      5     10     10       0.000          0.1000E+05

    100 GHB CELLS
 
 SOLVING FOR HEAD 

 OUTPUT CONTROL FOR STRESS PERIOD    1   TIME STEP    1
    SAVE HEAD FOR ALL LAYERS
    SAVE DRAWDOWN FOR ALL LAYERS
    SAVE BUDGET
    PRINT HEAD FOR ALL LAYERS
    PRINT BUDGET
 UBDSV2 SAVING "   CONSTANT HEAD" ON UNIT  53 AT TIME STEP  1, STRESS PERIOD   1
 UBDSV1 SAVING "FLOW RIGHT FACE " ON UNIT  53 AT TIME STEP  1, STRESS PERIOD   1
 UBDSV1 SAVING "FLOW FRONT FACE " ON UNIT  53 AT TIME STEP  1, STRESS PERIOD   1
 UBDSV1 SAVING "FLOW LOWER FACE " ON UNIT  53 AT TIME STEP  1, STRESS PERIOD   1

 SAVING SATURATED THICKNESS AND FLOW TERMS ON UNIT   54 FOR MT3DMS
 BY THE LINK-MT3DMS PACKAGE V7 AT TIME STEP    1, STRESS PERIOD    1

1
              HEAD IN LAYER   1 AT END OF TIME STEP   1 IN STRESS PERIOD    1
  ---------------------------------------------------------------------------

            1           2           3           4           5           6           7           8           9          10
 ........................................................................................................................
   1    9.998       8.935       7.860       6.773       5.676       4.566       3.445       2.312       1.165      1.5190E-03
   2    9.998       8.935       7.860       6.773       5.676       4.566       3.445       2.312       1.165      1.5190E-03
   3    9.998       8.935       7.860       6.773       5.676       4.566       3.445       2.312       1.165      1.5190E-03
   4    9.998       8.935       7.860       6.773       5.676       4.566       3.445       2.312       1.165      1.5190E-03
   5    9.998       8.935       7.860       6.773       5.676       4.566       3.445       2.312       1.165      1.5190E-03
   6    9.998       8.935       7.860       6.773       5.676       4.566       3.445       2.312       1.165      1.5190E-03
   7    9.998       8.935       7.860       6.773       5.676       4.566       3.445       2.312       1.165      1.5190E-03
   8    9.998       8.935       7.860       6.773       5.676       4.566       3.445       2.312       1.165      1.5190E-03
   9    9.998       8.935       7.860       6.773       5.676       4.566       3.445       2.312       1.165      1.5190E-03
  10    9.998       8.935       7.860       6.773       5.676       4.566       3.445       2.312       1.165      1.5190E-03
1
              HEAD IN LAYER   2 AT END OF TIME STEP   1 IN STRESS PERIOD    1
  ---------------------------------------------------------------------------

            1           2           3           4           5           6           7           8           9          10
 ........................................................................................................................
   1    9.998       8.934       7.858       6.771       5.674       4.564       3.443       2.310       1.163      2.4986E-03
   2    9.998       8.934       7.858       6.771       5.674       4.564       3.443       2.310       1.163      2.4986E-03
   3    9.998       8.934       7.858       6.771       5.674       4.564       3.443       2.310       1.163      2.4986E-03
   4    9.998       8.934       7.858       6.771       5.674       4.564       3.443       2.310       1.163      2.4986E-03
   5    9.998       8.934       7.858       6.771       5.674       4.564       3.443       2.310       1.163      2.4986E-03
   6    9.998       8.934       7.858       6.771       5.674       4.564       3.443       2.310       1.163      2.4986E-03
   7    9.998       8.934       7.858       6.771       5.674       4.564       3.443       2.310       1.163      2.4986E-03
   8    9.998       8.934       7.858       6.771       5.674       4.564       3.443       2.310       1.163      2.4986E-03
   9    9.998       8.934       7.858       6.771       5.674       4.564       3.443       2.310       1.163      2.4986E-03
  10    9.998       8.934       7.858       6.771       5.674       4.564       3.443       2.310       1.163      2.4986E-03
1
              HEAD IN LAYER   3 AT END OF TIME STEP   1 IN STRESS PERIOD    1
  ---------------------------------------------------------------------------

            1           2           3           4           5           6           7           8           9          10
 ........................................................................................................................
   1    9.998       8.932       7.856       6.770       5.672       4.563       3.441       2.308       1.162      2.5478E-03
   2    9.998       8.932       7.856       6.770       5.672       4.563       3.441       2.308       1.162      2.5478E-03
   3    9.998       8.932       7.856       6.770       5.672       4.563       3.441       2.308       1.162      2.5478E-03
   4    9.998       8.932       7.856       6.770       5.672       4.563       3.441       2.308       1.162      2.5478E-03
   5    9.998       8.932       7.856       6.770       5.672       4.563       3.441       2.308       1.162      2.5478E-03
   6    9.998       8.932       7.856       6.770       5.672       4.563       3.441       2.308       1.162      2.5478E-03
   7    9.998       8.932       7.856       6.770       5.672       4.563       3.441       2.308       1.162      2.5478E-03
   8    9.998       8.932       7.856       6.770       5.672       4.563       3.441       2.308       1.162      2.5478E-03
   9    9.998       8.932       7.856       6.770       5.672       4.563       3.441       2.308       1.162      2.5478E-03
  10    9.998       8.932       7.856       6.770       5.672       4.563       3.441       2.308       1.162      2.5478E-03
1
              HEAD IN LAYER   4 AT END OF TIME STEP   1 IN STRESS PERIOD    1
  ---------------------------------------------------------------------------

            1           2           3           4           5           6           7           8           9          10
 ........................................................................................................................
   1    9.998       8.931       7.855       6.769       5.671       4.562       3.440       2.307       1.161      2.5475E-03
   2    9.998       8.931       7.855       6.769       5.671       4.562       3.440       2.307       1.161      2.5475E-03
   3    9.998       8.931       7.855       6.769       5.671       4.562       3.440       2.307       1.161      2.5475E-03
   4    9.998       8.931       7.855       6.769       5.671       4.562       3.440       2.307       1.161      2.5475E-03
   5    9.998       8.931       7.855       6.769       5.671       4.562       3.440       2.307       1.161      2.5475E-03
   6    9.998       8.931       7.855       6.769       5.671       4.562       3.440       2.307       1.161      2.5475E-03
   7    9.998       8.931       7.855       6.769       5.671       4.562       3.440       2.307       1.161      2.5475E-03
   8    9.998       8.931       7.855       6.769       5.671       4.562       3.440       2.307       1.161      2.5475E-03
   9    9.998       8.931       7.855       6.769       5.671       4.562       3.440       2.307       1.161      2.5475E-03
  10    9.998       8.931       7.855       6.769       5.671       4.562       3.440       2.307       1.161      2.5475E-03
1
              HEAD IN LAYER   5 AT END OF TIME STEP   1 IN STRESS PERIOD    1
  ---------------------------------------------------------------------------

            1           2           3           4           5           6           7           8           9          10
 ........................................................................................................................
   1    9.998       8.931       7.855       6.768       5.670       4.561       3.440       2.306       1.160      2.5464E-03
   2    9.998       8.931       7.855       6.768       5.670       4.561       3.440       2.306       1.160      2.5464E-03
   3    9.998       8.931       7.855       6.768       5.670       4.561       3.440       2.306       1.160      2.5464E-03
   4    9.998       8.931       7.855       6.768       5.670       4.561       3.440       2.306       1.160      2.5464E-03
   5    9.998       8.931       7.855       6.768       5.670       4.561       3.440       2.306       1.160      2.5464E-03
   6    9.998       8.931       7.855       6.768       5.670       4.561       3.440       2.306       1.160      2.5464E-03
   7    9.998       8.931       7.855       6.768       5.670       4.561       3.440       2.306       1.160      2.5464E-03
   8    9.998       8.931       7.855       6.768       5.670       4.561       3.440       2.306       1.160      2.5464E-03
   9    9.998       8.931       7.855       6.768       5.670       4.561       3.440       2.306       1.160      2.5464E-03
  10    9.998       8.931       7.855       6.768       5.670       4.561       3.440       2.306       1.160      2.5464E-03

 HEAD WILL BE SAVED ON UNIT   51 AT END OF TIME STEP    1, STRESS PERIOD    1

 DRAWDOWN WILL BE SAVED ON UNIT   52 AT END OF TIME STEP    1, STRESS PERIOD    1
1
  VOLUMETRIC BUDGET FOR ENTIRE MODEL AT END OF TIME STEP    1, STRESS PERIOD   1
  ------------------------------------------------------------------------------

     CUMULATIVE VOLUMES      L**3       RATES FOR THIS TIME STEP      L**3/T
     ------------------                 ------------------------

           IN:                                      IN:
           ---                                      ---
             STORAGE =           0.0000               STORAGE =           0.0000
       CONSTANT HEAD =           0.0000         CONSTANT HEAD =           0.0000
               WELLS =           0.0000                 WELLS =           0.0000
     HEAD DEP BOUNDS =        1165.9294       HEAD DEP BOUNDS =        1165.9294

            TOTAL IN =        1165.9294              TOTAL IN =        1165.9294

          OUT:                                     OUT:
          ----                                     ----
             STORAGE =           0.0000               STORAGE =           0.0000
       CONSTANT HEAD =           0.0000         CONSTANT HEAD =           0.0000
               WELLS =           0.0000                 WELLS =           0.0000
     HEAD DEP BOUNDS =        1165.9294       HEAD DEP BOUNDS =        1165.9294

           TOTAL OUT =        1165.9294             TOTAL OUT =        1165.9294

            IN - OUT =           0.0000              IN - OUT =           0.0000

 PERCENT DISCREPANCY =           0.00     PERCENT DISCREPANCY =           0.00






         TIME SUMMARY AT END OF TIME STEP    1 IN STRESS PERIOD    1
                    SECONDS     MINUTES      HOURS       DAYS        YEARS
                    -----------------------------------------------------------
   TIME STEP LENGTH  86400.      1440.0      24.000      1.0000     2.73785E-03
 STRESS PERIOD TIME  86400.      1440.0      24.000      1.0000     2.73785E-03
         TOTAL TIME  86400.      1440.0      24.000      1.0000     2.73785E-03
1
1
                            STRESS PERIOD NO.    2, LENGTH =   100.0000    
                            -----------------------------------------------

                              NUMBER OF TIME STEPS =   100

                               MULTIPLIER FOR DELT =     1.000

                            INITIAL TIME STEP SIZE =   1.000000    

 WELL NO.  LAYER   ROW   COL   STRESS RATE         
 --------------------------------------------------
      1      2      6      6       100.0    

      1 WELL 

 BOUND. NO. LAYER   ROW   COL     STAGE      CONDUCTANCE         
 ----------------------------------------------------------------
      1      1      1      1       10.00          0.1100E+05
      2      1      1     10       0.000          0.1000E+05
      3      1      2      1       10.00          0.1100E+05
      4      1      2     10       0.000          0.1000E+05
      5      1      3      1       10.00          0.1100E+05
      6      1      3     10       0.000          0.1000E+05
      7      1      4      1       10.00          0.1100E+05
      8      1      4     10       0.000          0.1000E+05
      9      1      5      1       10.00          0.1100E+05
     10      1      5     10       0.000          0.1000E+05
     11      1      6      1       10.00          0.1100E+05
     12      1      6     10       0.000          0.1000E+05
     13      1      7      1       10.00          0.1100E+05
     14      1      7     10       0.000          0.1000E+05
     15      1      8      1       10.00          0.1100E+05
     16      1      8     10       0.000          0.1000E+05
     17      1      9      1       10.00          0.1100E+05
     18      1      9     10       0.000          0.1000E+05
     19      1     10      1       10.00          0.1100E+05
     20      1     10     10       0.000          0.1000E+05
     21      2      1      1       10.00          0.1100E+05
     22      2      1     10       0.000          0.1000E+05
     23      2      2      1       10.00          0.1100E+05
     24      2      2     10       0.000          0.1000E+05
     25      2      3      1       10.00          0.1100E+05
     26      2      3     10       0.000          0.1000E+05
     27      2      4      1       10.00          0.1100E+05
     28      2      4     10       0.000          0.1000E+05
     29      2      5      1       10.00          0.1100E+05
     30      2      5     10       0.000          0.1000E+05
     31      2      6      1       10.00          0.1100E+05
     32      2      6     10       0.000          0.1000E+05
     33      2      7      1       10.00          0.1100E+05
     34      2      7     10       0.000          0.1000E+05
     35      2      8      1       10.00          0.1100E+05
     36      2      8     10       0.000          0.1000E+05
     37      2      9      1       10.00          0.1100E+05
     38      2      9     10       0.000          0.1000E+05
     39      2     10      1       10.00          0.1100E+05
     40      2     10     10       0.000          0.1000E+05
     41      3      1      1       10.00          0.1100E+05
     42      3      1     10       0.000          0.1000E+05
     43      3      2      1       10.00          0.1100E+05
     44      3      2     10       0.000          0.1000E+05
     45      3      3      1       10.00          0.1100E+05
     46      3      3     10       0.000          0.1000E+05
     47      3      4      1       10.00          0.1100E+05
     48      3      4     10       0.000          0.1000E+05
     49      3      5      1       10.00          0.1100E+05
     50      3      5     10       0.000          0.1000E+05
     51      3      6      1       10.00          0.1100E+05
     52      3      6     10       0.000          0.1000E+05
     53      3      7      1       10.00          0.1100E+05
     54      3      7     10       0.000          0.1000E+05
     55      3      8      1       10.00          0.1100E+05
     56      3      8     10       0.000          0.1000E+05
     57      3      9      1       10.00          0.1100E+05
     58      3      9     10       0.000          0.1000E+05
     59      3     10      1       10.00          0.1100E+05
     60      3     10     10       0.000          0.1000E+05
     61      4      1      1       10.00          0.1100E+05
     62      4      1     10       0.000          0.1000E+05
     63      4      2      1       10.00          0.1100E+05
     64      4      2     10       0.000          0.1000E+05
     65      4      3      1       10.00          0.1100E+05
     66      4      3     10       0.000          0.1000E+05
     67      4      4      1       10.00          0.1100E+05
     68      4      4     10       0.000          0.1000E+05
     69      4      5      1       10.00          0.1100E+05
     70      4      5     10       0.000          0.1000E+05
     71      4      6      1       10.00          0.1100E+05
     72      4      6     10       0.000          0.1000E+05
     73      4      7      1       10.00          0.1100E+05
     74      4      7     10       0.000          0.1000E+05
     75      4      8      1       10.00          0.1100E+05
     76      4      8     10       0.000          0.1000E+05
     77      4      9      1       10.00          0.1100E+05
     78      4      9     10       0.000          0.1000E+05
     79      4     10      1       10.00          0.1100E+05
     80      4     10     10       0.000          0.1000E+05
     81      5      1      1       10.00          0.1100E+05
     82      5      1     10       0.000          0.1000E+05
     83      5      2      1       10.00          0.1100E+05
     84      5      2     10       0.000          0.1000E+05
     85      5      3      1       10.00          0.1100E+05
     86      5      3     10       0.000          0.1000E+05
     87      5      4      1       10.00          0.1100E+05
     88      5      4     10       0.000          0.1000E+05
     89      5      5      1       10.00          0.1100E+05
     90      5      5     10       0.000          0.1000E+05
     91      5      6      1       10.00          0.1100E+05
     92      5      6     10       0.000          0.1000E+05
     93      5      7      1       10.00          0.1100E+05
     94      5      7     10       0.000          0.1000E+05
     95      5      8      1       10.00          0.1100E+05
     96      5      8     10       0.000          0.1000E+05
     97      5      9      1       10.00          0.1100E+05
     98      5      9     10       0.000          0.1000E+05
     99      5     10      1       10.00          0.1100E+05
    100      5     10     10       0.000          0.1000E+05

    100 GHB CELLS
 
 SOLVING FOR HEAD 

 OUTPUT CONTROL FOR STRESS PERIOD    2   TIME STEP    1
    SAVE HEAD FOR ALL LAYERS
    SAVE DRAWDOWN FOR ALL LAYERS
    SAVE BUDGET
    PRINT HEAD FOR ALL LAYERS
    PRINT BUDGET
 UBDSV1 SAVING "         STORAGE" ON UNIT  53 AT TIME STEP  1, STRESS PERIOD   2
 UBDSV2 SAVING "   CONSTANT HEAD" ON UNIT  53 AT TIME STEP  1, STRESS PERIOD   2
 UBDSV1 SAVING "FLOW RIGHT FACE " ON UNIT  53 AT TIME STEP  1, STRESS PERIOD   2
 UBDSV1 SAVING "FLOW FRONT FACE " ON UNIT  53 AT TIME STEP  1, STRESS PERIOD   2
 UBDSV1 SAVING "FLOW LOWER FACE " ON UNIT  53 AT TIME STEP  1, STRESS PERIOD   2

 SAVING SATURATED THICKNESS AND FLOW TERMS ON UNIT   54 FOR MT3DMS
 BY THE LINK-MT3DMS PACKAGE V7 AT TIME STEP    1, STRESS PERIOD    2

1
              HEAD IN LAYER   1 AT END OF TIME STEP   1 IN STRESS PERIOD    2
  ---------------------------------------------------------------------------

            1           2           3           4           5           6           7           8           9          10
 ........................................................................................................................
   1    9.998       8.935       7.860       6.773       5.676       4.566       3.445       2.312       1.165      1.5190E-03
   2    9.998       8.935       7.860       6.773       5.676       4.566       3.445       2.312       1.165      1.5190E-03
   3    9.998       8.935       7.860       6.773       5.676       4.567       3.445       2.312       1.165      1.5190E-03
   4    9.998       8.935       7.860       6.774       5.676       4.567       3.446       2.312       1.165      1.5190E-03
   5    9.998       8.935       7.860       6.774       5.677       4.571       3.446       2.312       1.165      1.5191E-03
   6    9.998       8.935       7.860       6.774       5.680       4.621       3.450       2.312       1.165      1.5191E-03
   7    9.998       8.935       7.860       6.774       5.677       4.571       3.446       2.312       1.165      1.5191E-03
   8    9.998       8.935       7.860       6.774       5.676       4.567       3.446       2.312       1.165      1.5190E-03
   9    9.998       8.935       7.860       6.773       5.676       4.567       3.445       2.312       1.165      1.5190E-03
  10    9.998       8.935       7.860       6.773       5.676       4.566       3.445       2.312       1.165      1.5190E-03
1
              HEAD IN LAYER   2 AT END OF TIME STEP   1 IN STRESS PERIOD    2
  ---------------------------------------------------------------------------

            1           2           3           4           5           6           7           8           9          10
 ........................................................................................................................
   1    9.998       8.934       7.858       6.771       5.674       4.564       3.443       2.310       1.163      2.4986E-03
   2    9.998       8.934       7.858       6.771       5.674       4.564       3.443       2.310       1.163      2.4986E-03
   3    9.998       8.934       7.858       6.771       5.674       4.565       3.443       2.310       1.163      2.4986E-03
   4    9.998       8.934       7.858       6.772       5.674       4.566       3.444       2.310       1.163      2.4987E-03
   5    9.998       8.934       7.858       6.772       5.676       4.577       3.446       2.310       1.164      2.4988E-03
   6    9.998       8.934       7.858       6.773       5.686       4.731       3.455       2.311       1.164      2.4990E-03
   7    9.998       8.934       7.858       6.772       5.676       4.577       3.446       2.310       1.164      2.4988E-03
   8    9.998       8.934       7.858       6.772       5.674       4.566       3.444       2.310       1.163      2.4987E-03
   9    9.998       8.934       7.858       6.771       5.674       4.565       3.443       2.310       1.163      2.4986E-03
  10    9.998       8.934       7.858       6.771       5.674       4.564       3.443       2.310       1.163      2.4986E-03
1
              HEAD IN LAYER   3 AT END OF TIME STEP   1 IN STRESS PERIOD    2
  ---------------------------------------------------------------------------

            1           2           3           4           5           6           7           8           9          10
 ........................................................................................................................
   1    9.998       8.932       7.856       6.770       5.672       4.563       3.441       2.308       1.162      2.5478E-03
   2    9.998       8.932       7.856       6.770       5.672       4.563       3.442       2.308       1.162      2.5478E-03
   3    9.998       8.932       7.856       6.770       5.672       4.563       3.442       2.308       1.162      2.5478E-03
   4    9.998       8.932       7.856       6.770       5.673       4.565       3.442       2.308       1.162      2.5479E-03
   5    9.998       8.932       7.857       6.771       5.676       4.578       3.446       2.309       1.162      2.5482E-03
   6    9.998       8.932       7.857       6.772       5.687       4.675       3.457       2.310       1.162      2.5485E-03
   7    9.998       8.932       7.857       6.771       5.676       4.578       3.446       2.309       1.162      2.5482E-03
   8    9.998       8.932       7.856       6.770       5.673       4.565       3.442       2.308       1.162      2.5479E-03
   9    9.998       8.932       7.856       6.770       5.672       4.563       3.442       2.308       1.162      2.5478E-03
  10    9.998       8.932       7.856       6.770       5.672       4.563       3.442       2.308       1.162      2.5478E-03
1
              HEAD IN LAYER   4 AT END OF TIME STEP   1 IN STRESS PERIOD    2
  ---------------------------------------------------------------------------

            1           2           3           4           5           6           7           8           9          10
 ........................................................................................................................
   1    9.998       8.931       7.855       6.769       5.671       4.562       3.440       2.307       1.161      2.5475E-03
   2    9.998       8.931       7.855       6.769       5.671       4.562       3.440       2.307       1.161      2.5475E-03
   3    9.998       8.931       7.855       6.769       5.671       4.562       3.441       2.307       1.161      2.5476E-03
   4    9.998       8.931       7.855       6.769       5.672       4.564       3.441       2.307       1.161      2.5477E-03
   5    9.998       8.931       7.856       6.770       5.676       4.578       3.445       2.308       1.161      2.5480E-03
   6    9.998       8.931       7.856       6.771       5.687       4.644       3.456       2.309       1.161      2.5485E-03
   7    9.998       8.931       7.856       6.770       5.676       4.578       3.445       2.308       1.161      2.5480E-03
   8    9.998       8.931       7.855       6.769       5.672       4.564       3.441       2.307       1.161      2.5477E-03
   9    9.998       8.931       7.855       6.769       5.671       4.562       3.441       2.307       1.161      2.5476E-03
  10    9.998       8.931       7.855       6.769       5.671       4.562       3.440       2.307       1.161      2.5476E-03
1
              HEAD IN LAYER   5 AT END OF TIME STEP   1 IN STRESS PERIOD    2
  ---------------------------------------------------------------------------

            1           2           3           4           5           6           7           8           9          10
 ........................................................................................................................
   1    9.998       8.931       7.855       6.768       5.670       4.561       3.440       2.306       1.160      2.5464E-03
   2    9.998       8.931       7.855       6.768       5.670       4.561       3.440       2.306       1.160      2.5464E-03
   3    9.998       8.931       7.855       6.768       5.671       4.562       3.440       2.306       1.160      2.5465E-03
   4    9.998       8.931       7.855       6.769       5.672       4.564       3.441       2.306       1.160      2.5466E-03
   5    9.998       8.931       7.855       6.770       5.676       4.577       3.445       2.307       1.160      2.5470E-03
   6    9.998       8.931       7.855       6.771       5.686       4.629       3.456       2.309       1.160      2.5475E-03
   7    9.998       8.931       7.855       6.770       5.676       4.577       3.445       2.307       1.160      2.5470E-03
   8    9.998       8.931       7.855       6.769       5.672       4.564       3.441       2.306       1.160      2.5466E-03
   9    9.998       8.931       7.855       6.768       5.671       4.562       3.440       2.306       1.160      2.5465E-03
  10    9.998       8.931       7.855       6.768       5.670       4.561       3.440       2.306       1.160      2.5464E-03

 HEAD WILL BE SAVED ON UNIT   51 AT END OF TIME STEP    1, STRESS PERIOD    2

 DRAWDOWN WILL BE SAVED ON UNIT   52 AT END OF TIME STEP    1, STRESS PERIOD    2
1
  VOLUMETRIC BUDGET FOR ENTIRE MODEL AT END OF TIME STEP    1, STRESS PERIOD   2
  ------------------------------------------------------------------------------

     CUMULATIVE VOLUMES      L**3       RATES FOR THIS TIME STEP      L**3/T
     ------------------                 ------------------------

           IN:                                      IN:
           ---                                      ---
             STORAGE =           0.0000               STORAGE =           0.0000
       CONSTANT HEAD =           0.0000         CONSTANT HEAD =           0.0000
               WELLS =         100.0000                 WELLS =         100.0000
     HEAD DEP BOUNDS =        2331.8735       HEAD DEP BOUNDS =        1165.9442

            TOTAL IN =        2431.8735              TOTAL IN =        1265.9442

          OUT:                                     OUT:
          ----                                     ----
             STORAGE =          99.8882               STORAGE =          99.8882
       CONSTANT HEAD =           0.0000         CONSTANT HEAD =           0.0000
               WELLS =           0.0000                 WELLS =           0.0000
     HEAD DEP BOUNDS =        2331.9497       HEAD DEP BOUNDS =        1166.0204

           TOTAL OUT =        2431.8379             TOTAL OUT =        1265.9086

            IN - OUT =       3.5645E-02              IN - OUT =       3.5645E-02

 PERCENT DISCREPANCY =           0.00     PERCENT DISCREPANCY =           0.00






         TIME SUMMARY AT END OF TIME STEP    1 IN STRESS PERIOD    2
                    SECONDS     MINUTES      HOURS       DAYS        YEARS
                    -----------------------------------------------------------
   TIME STEP LENGTH  86400.      1440.0      24.000      1.0000     2.73785E-03
 STRESS PERIOD TIME  86400.      1440.0      24.000      1.0000     2.73785E-03
         TOTAL TIME 1.72800E+05  2880.0      48.000      2.0000     5.47570E-03
1
 
 SOLVING FOR HEAD 

 OUTPUT CONTROL FOR STRESS PERIOD    2   TIME STEP    2
    SAVE HEAD FOR ALL LAYERS
    SAVE DRAWDOWN FOR ALL LAYERS
    SAVE BUDGET
    PRINT HEAD FOR ALL LAYERS
    PRINT BUDGET
 UBDSV1 SAVING "         STORAGE" ON UNIT  53 AT TIME STEP  2, STRESS PERIOD   2
 UBDSV2 SAVING "   CONSTANT HEAD" ON UNIT  53 AT TIME STEP  2, STRESS PERIOD   2
 UBDSV1 SAVING "FLOW RIGHT FACE " ON UNIT  53 AT TIME STEP  2, STRESS PERIOD   2
 UBDSV1 SAVING "FLOW FRONT FACE " ON UNIT  53 AT TIME STEP  2, STRESS PERIOD   2
 UBDSV1 SAVING "FLOW LOWER FACE " ON UNIT  53 AT TIME STEP  2, STRESS PERIOD   2

 SAVING SATURATED THICKNESS AND FLOW TERMS ON UNIT   54 FOR MT3DMS
 BY THE LINK-MT3DMS PACKAGE V7 AT TIME STEP    2, STRESS PERIOD    2

1
              HEAD IN LAYER   1 AT END OF TIME STEP   2 IN STRESS PERIOD    2
  ---------------------------------------------------------------------------

            1           2           3           4           5           6           7           8           9          10
 ........................................................................................................................
   1    9.998       8.935       7.860       6.773       5.676       4.566       3.445       2.312       1.165      1.5190E-03
   2    9.998       8.935       7.860       6.773       5.676       4.567       3.445       2.312       1.165      1.5190E-03
   3    9.998       8.935       7.860       6.774       5.676       4.567       3.445       2.312       1.165      1.5190E-03
   4    9.998       8.935       7.860       6.774       5.676       4.568       3.446       2.312       1.165      1.5191E-03
   5    9.998       8.935       7.860       6.774       5.678       4.577       3.448       2.312       1.165      1.5192E-03
   6    9.998       8.935       7.860       6.775       5.686       4.670       3.456       2.313       1.166      1.5194E-03
   7    9.998       8.935       7.860       6.774       5.678       4.577       3.448       2.312       1.165      1.5192E-03
   8    9.998       8.935       7.860       6.774       5.676       4.568       3.446       2.312       1.165      1.5191E-03
   9    9.998       8.935       7.860       6.774       5.676       4.567       3.445       2.312       1.165      1.5190E-03
  10    9.998       8.935       7.860       6.773       5.676       4.567       3.445       2.312       1.165      1.5190E-03
1
              HEAD IN LAYER   2 AT END OF TIME STEP   2 IN STRESS PERIOD    2
  ---------------------------------------------------------------------------

            1           2           3           4           5           6           7           8           9          10
 ........................................................................................................................
   1    9.998       8.934       7.858       6.771       5.674       4.564       3.443       2.310       1.163      2.4986E-03
   2    9.998       8.934       7.858       6.771       5.674       4.565       3.443       2.310       1.163      2.4986E-03
   3    9.998       8.934       7.858       6.772       5.674       4.565       3.444       2.310       1.163      2.4987E-03
   4    9.998       8.934       7.858       6.772       5.675       4.567       3.445       2.310       1.163      2.4988E-03
   5    9.998       8.934       7.858       6.773       5.679       4.585       3.449       2.311       1.164      2.4992E-03
   6    9.998       8.934       7.859       6.775       5.694       4.774       3.463       2.313       1.164      2.4997E-03
   7    9.998       8.934       7.858       6.773       5.679       4.585       3.449       2.311       1.164      2.4992E-03
   8    9.998       8.934       7.858       6.772       5.675       4.567       3.445       2.310       1.163      2.4988E-03
   9    9.998       8.934       7.858       6.772       5.674       4.565       3.444       2.310       1.163      2.4987E-03
  10    9.998       8.934       7.858       6.771       5.674       4.565       3.443       2.310       1.163      2.4986E-03
1
              HEAD IN LAYER   3 AT END OF TIME STEP   2 IN STRESS PERIOD    2
  ---------------------------------------------------------------------------

            1           2           3           4           5           6           7           8           9          10
 ........................................................................................................................
   1    9.998       8.932       7.856       6.770       5.672       4.563       3.442       2.308       1.162      2.5478E-03
   2    9.998       8.932       7.856       6.770       5.672       4.563       3.442       2.308       1.162      2.5478E-03
   3    9.998       8.932       7.856       6.770       5.673       4.564       3.442       2.308       1.162      2.5479E-03
   4    9.998       8.932       7.857       6.771       5.674       4.567       3.443       2.309       1.162      2.5482E-03
   5    9.998       8.932       7.857       6.772       5.680       4.587       3.449       2.310       1.162      2.5487E-03
   6    9.998       8.932       7.857       6.774       5.697       4.712       3.466       2.312       1.162      2.5495E-03
   7    9.998       8.932       7.857       6.772       5.680       4.587       3.449       2.310       1.162      2.5487E-03
   8    9.998       8.932       7.857       6.771       5.674       4.567       3.443       2.309       1.162      2.5482E-03
   9    9.998       8.932       7.856       6.770       5.673       4.564       3.442       2.308       1.162      2.5479E-03
  10    9.998       8.932       7.856       6.770       5.672       4.563       3.442       2.308       1.162      2.5478E-03
1
              HEAD IN LAYER   4 AT END OF TIME STEP   2 IN STRESS PERIOD    2
  ---------------------------------------------------------------------------

            1           2           3           4           5           6           7           8           9          10
 ........................................................................................................................
   1    9.998       8.931       7.855       6.769       5.671       4.562       3.440       2.307       1.161      2.5475E-03
   2    9.998       8.931       7.855       6.769       5.671       4.562       3.440       2.307       1.161      2.5476E-03
   3    9.998       8.931       7.855       6.769       5.672       4.563       3.441       2.307       1.161      2.5477E-03
   4    9.998       8.931       7.856       6.770       5.673       4.567       3.443       2.308       1.161      2.5480E-03
   5    9.998       8.931       7.856       6.771       5.680       4.588       3.450       2.309       1.161      2.5487E-03
   6    9.998       8.931       7.856       6.774       5.697       4.677       3.466       2.312       1.161      2.5496E-03
   7    9.998       8.931       7.856       6.771       5.680       4.588       3.450       2.309       1.161      2.5487E-03
   8    9.998       8.931       7.856       6.770       5.673       4.567       3.443       2.308       1.161      2.5480E-03
   9    9.998       8.931       7.855       6.769       5.672       4.563       3.441       2.307       1.161      2.5477E-03
  10    9.998       8.931       7.855       6.769       5.671       4.562       3.440       2.307       1.161      2.5476E-03
1
              HEAD IN LAYER   5 AT END OF TIME STEP   2 IN STRESS PERIOD    2
  ---------------------------------------------------------------------------

            1           2           3           4           5           6           7           8           9          10
 ........................................................................................................................
   1    9.998       8.931       7.855       6.768       5.670       4.561       3.440       2.306       1.160      2.5464E-03
   2    9.998       8.931       7.855       6.768       5.671       4.561       3.440       2.306       1.160      2.5465E-03
   3    9.998       8.931       7.855       6.768       5.671       4.562       3.440       2.306       1.160      2.5466E-03
   4    9.998       8.931       7.855       6.769       5.673       4.567       3.442       2.307       1.160      2.5469E-03
   5    9.998       8.931       7.856       6.771       5.680       4.588       3.450       2.309       1.161      2.5477E-03
   6    9.998       8.931       7.856       6.774       5.697       4.660       3.466       2.312       1.161      2.5487E-03
   7    9.998       8.931       7.856       6.771       5.680       4.588       3.450       2.309       1.161      2.5477E-03
   8    9.998       8.931       7.855       6.769       5.673       4.567       3.442       2.307       1.160      2.5469E-03
   9    9.998       8.931       7.855       6.768       5.671       4.562       3.440       2.306       1.160      2.5466E-03
  10    9.998       8.931       7.855       6.768       5.671       4.561       3.440       2.306       1.160      2.5465E-03

 HEAD WILL BE SAVED ON UNIT   51 AT END OF TIME STEP    2, STRESS PERIOD    2

 DRAWDOWN WILL BE SAVED ON UNIT   52 AT END OF TIME STEP    2, STRESS PERIOD    2
1
  VOLUMETRIC BUDGET FOR ENTIRE MODEL AT END OF TIME STEP    2, STRESS PERIOD   2
  ------------------------------------------------------------------------------

     CUMULATIVE VOLUMES      L**3       RATES FOR THIS TIME STEP      L**3/T
     ------------------                 ------------------------

           IN:                                      IN:
           ---                                      ---
             STORAGE =           0.0000               STORAGE =           0.0000
       CONSTANT HEAD =           0.0000         CONSTANT HEAD =           0.0000
               WELLS =         200.0000                 WELLS =         100.0000
     HEAD DEP BOUNDS =        3497.7852       HEAD DEP BOUNDS =        1165.9116

            TOTAL IN =        3697.7852              TOTAL IN =        1265.9116

          OUT:                                     OUT:
          ----                                     ----
             STORAGE =         199.6282               STORAGE =          99.7400
       CONSTANT HEAD =           0.0000         CONSTANT HEAD =           0.0000
               WELLS =           0.0000                 WELLS =           0.0000
     HEAD DEP BOUNDS =        3498.0908       HEAD DEP BOUNDS =        1166.1412

           TOTAL OUT =        3697.7190             TOTAL OUT =        1265.8812

            IN - OUT =       6.6162E-02              IN - OUT =       3.0396E-02

 PERCENT DISCREPANCY =           0.00     PERCENT DISCREPANCY =           0.00






         TIME SUMMARY AT END OF TIME STEP    2 IN STRESS PERIOD    2
                    SECONDS     MINUTES      HOURS       DAYS        YEARS
                    -----------------------------------------------------------
   TIME STEP LENGTH  86400.      1440.0      24.000      1.0000     2.73785E-03
 STRESS PERIOD TIME 1.72800E+05  2880.0      48.000      2.0000     5.47570E-03
         TOTAL TIME 2.59200E+05  4320.0      72.000      3.0000     8.21355E-03
1
 
 SOLVING FOR HEAD 

 OUTPUT CONTROL FOR STRESS PERIOD    2   TIME STEP    3
    SAVE HEAD FOR ALL LAYERS
    SAVE DRAWDOWN FOR ALL LAYERS
    SAVE BUDGET
    PRINT HEAD FOR ALL LAYERS
    PRINT BUDGET
 UBDSV1 SAVING "         STORAGE" ON UNIT  53 AT TIME STEP  3, STRESS PERIOD   2
 UBDSV2 SAVING "   CONSTANT HEAD" ON UNIT  53 AT TIME STEP  3, STRESS PERIOD   2
 UBDSV1 SAVING "FLOW RIGHT FACE " ON UNIT  53 AT TIME STEP  3, STRESS PERIOD   2
 UBDSV1 SAVING "FLOW FRONT FACE " ON UNIT  53 AT TIME STEP  3, STRESS PERIOD   2
 UBDSV1 SAVING "FLOW LOWER FACE " ON UNIT  53 AT TIME STEP  3, STRESS PERIOD   2

 SAVING SATURATED THICKNESS AND FLOW TERMS ON UNIT   54 FOR MT3DMS
 BY THE LINK-MT3DMS PACKAGE V7 AT TIME STEP    3, STRESS PERIOD    2

1
              HEAD IN LAYER   1 AT END OF TIME STEP   3 IN STRESS PERIOD    2
  ---------------------------------------------------------------------------

            1           2           3           4           5           6           7           8           9          10
 ........................................................................................................................
   1    9.998       8.935       7.860       6.773       5.676       4.566       3.445       2.312       1.165      1.5190E-03
   2    9.998       8.935       7.860       6.773       5.676       4.567       3.445       2.312       1.165      1.5190E-03
   3    9.998       8.935       7.860       6.774       5.676       4.567       3.446       2.312       1.165      1.5191E-03
   4    9.998       8.935       7.860       6.774       5.677       4.569       3.446       2.312       1.165      1.5192E-03
   5    9.998       8.935       7.860       6.775       5.681       4.584       3.450       2.313       1.166      1.5194E-03
   6    9.998       8.936       7.860       6.776       5.693       4.711       3.463       2.314       1.166      1.5197E-03
   7    9.998       8.935       7.860       6.775       5.681       4.584       3.450       2.313       1.166      1.5194E-03
   8    9.998       8.935       7.860       6.774       5.677       4.569       3.446       2.312       1.165      1.5192E-03
   9    9.998       8.935       7.860       6.774       5.676       4.567       3.446       2.312       1.165      1.5191E-03
  10    9.998       8.935       7.860       6.773       5.676       4.567       3.445       2.312       1.165      1.5190E-03
1
              HEAD IN LAYER   2 AT END OF TIME STEP   3 IN STRESS PERIOD    2
  ---------------------------------------------------------------------------

            1           2           3           4           5           6           7           8           9          10
 ........................................................................................................................
   1    9.998       8.934       7.858       6.771       5.674       4.565       3.443       2.310       1.163      2.4986E-03
   2    9.998       8.934       7.858       6.772       5.674       4.565       3.443       2.310       1.163      2.4986E-03
   3    9.998       8.934       7.858       6.772       5.674       4.565       3.444       2.310       1.163      2.4987E-03
   4    9.998       8.934       7.858       6.772       5.676       4.569       3.445       2.311       1.164      2.4990E-03
   5    9.998       8.934       7.859       6.774       5.682       4.592       3.452       2.312       1.164      2.4996E-03
   6    9.998       8.934       7.859       6.776       5.702       4.806       3.471       2.314       1.164      2.5004E-03
   7    9.998       8.934       7.859       6.774       5.682       4.592       3.452       2.312       1.164      2.4996E-03
   8    9.998       8.934       7.858       6.772       5.676       4.569       3.445       2.311       1.164      2.4990E-03
   9    9.998       8.934       7.858       6.772       5.674       4.565       3.444       2.310       1.163      2.4987E-03
  10    9.998       8.934       7.858       6.772       5.674       4.565       3.443       2.310       1.163      2.4986E-03
1
              HEAD IN LAYER   3 AT END OF TIME STEP   3 IN STRESS PERIOD    2
  ---------------------------------------------------------------------------

            1           2           3           4           5           6           7           8           9          10
 ........................................................................................................................
   1    9.998       8.932       7.856       6.770       5.672       4.563       3.442       2.308       1.162      2.5478E-03
   2    9.998       8.932       7.856       6.770       5.672       4.563       3.442       2.308       1.162      2.5479E-03
   3    9.998       8.932       7.857       6.770       5.673       4.564       3.442       2.308       1.162      2.5480E-03
   4    9.998       8.932       7.857       6.771       5.675       4.569       3.445       2.309       1.162      2.5484E-03
   5    9.998       8.932       7.857       6.773       5.683       4.595       3.453       2.311       1.162      2.5494E-03
   6    9.998       8.932       7.858       6.776       5.705       4.738       3.474       2.314       1.163      2.5504E-03
   7    9.998       8.932       7.857       6.773       5.683       4.595       3.453       2.311       1.162      2.5494E-03
   8    9.998       8.932       7.857       6.771       5.675       4.569       3.445       2.309       1.162      2.5484E-03
   9    9.998       8.932       7.857       6.770       5.673       4.564       3.442       2.308       1.162      2.5480E-03
  10    9.998       8.932       7.856       6.770       5.672       4.563       3.442       2.308       1.162      2.5479E-03
1
              HEAD IN LAYER   4 AT END OF TIME STEP   3 IN STRESS PERIOD    2
  ---------------------------------------------------------------------------

            1           2           3           4           5           6           7           8           9          10
 ........................................................................................................................
   1    9.998       8.931       7.855       6.769       5.671       4.562       3.440       2.307       1.161      2.5476E-03
   2    9.998       8.931       7.855       6.769       5.671       4.562       3.441       2.307       1.161      2.5476E-03
   3    9.998       8.931       7.856       6.769       5.672       4.563       3.441       2.307       1.161      2.5478E-03
   4    9.998       8.931       7.856       6.770       5.675       4.569       3.444       2.308       1.161      2.5483E-03
   5    9.998       8.932       7.856       6.773       5.684       4.596       3.453       2.310       1.161      2.5495E-03
   6    9.998       8.932       7.857       6.776       5.705       4.698       3.474       2.314       1.162      2.5508E-03
   7    9.998       8.932       7.856       6.773       5.684       4.596       3.453       2.310       1.161      2.5495E-03
   8    9.998       8.931       7.856       6.770       5.675       4.569       3.444       2.308       1.161      2.5483E-03
   9    9.998       8.931       7.856       6.769       5.672       4.563       3.441       2.307       1.161      2.5478E-03
  10    9.998       8.931       7.855       6.769       5.671       4.562       3.441       2.307       1.161      2.5476E-03
1
              HEAD IN LAYER   5 AT END OF TIME STEP   3 IN STRESS PERIOD    2
  ---------------------------------------------------------------------------

            1           2           3           4           5           6           7           8           9          10
 ........................................................................................................................
   1    9.998       8.931       7.855       6.768       5.670       4.561       3.440       2.306       1.160      2.5465E-03
   2    9.998       8.931       7.855       6.768       5.671       4.561       3.440       2.306       1.160      2.5465E-03
   3    9.998       8.931       7.855       6.769       5.671       4.563       3.441       2.307       1.160      2.5467E-03
   4    9.998       8.931       7.855       6.770       5.674       4.569       3.444       2.308       1.160      2.5473E-03
   5    9.998       8.931       7.856       6.772       5.684       4.596       3.454       2.310       1.161      2.5486E-03
   6    9.998       8.931       7.857       6.776       5.705       4.680       3.474       2.314       1.162      2.5499E-03
   7    9.998       8.931       7.856       6.772       5.684       4.596       3.454       2.310       1.161      2.5486E-03
   8    9.998       8.931       7.855       6.770       5.674       4.569       3.444       2.308       1.160      2.5473E-03
   9    9.998       8.931       7.855       6.769       5.671       4.563       3.441       2.307       1.160      2.5467E-03
  10    9.998       8.931       7.855       6.768       5.671       4.561       3.440       2.306       1.160      2.5465E-03

 HEAD WILL BE SAVED ON UNIT   51 AT END OF TIME STEP    3, STRESS PERIOD    2

 DRAWDOWN WILL BE SAVED ON UNIT   52 AT END OF TIME STEP    3, STRESS PERIOD    2
1
  VOLUMETRIC BUDGET FOR ENTIRE MODEL AT END OF TIME STEP    3, STRESS PERIOD   2
  ------------------------------------------------------------------------------

     CUMULATIVE VOLUMES      L**3       RATES FOR THIS TIME STEP      L**3/T
     ------------------                 ------------------------

           IN:                                      IN:
           ---                                      ---
             STORAGE =           0.0000               STORAGE =           0.0000
       CONSTANT HEAD =           0.0000         CONSTANT HEAD =           0.0000
               WELLS =         300.0000                 WELLS =         100.0000
     HEAD DEP BOUNDS =        4663.6543       HEAD DEP BOUNDS =        1165.8693

            TOTAL IN =        4963.6543              TOTAL IN =        1265.8693

          OUT:                                     OUT:
          ----                                     ----
             STORAGE =         299.1847               STORAGE =          99.5565
       CONSTANT HEAD =           0.0000         CONSTANT HEAD =           0.0000
               WELLS =           0.0000                 WELLS =           0.0000
     HEAD DEP BOUNDS =        4664.3730       HEAD DEP BOUNDS =        1166.2820

           TOTAL OUT =        4963.5576             TOTAL OUT =        1265.8385

            IN - OUT =       9.6680E-02              IN - OUT =       3.0762E-02

 PERCENT DISCREPANCY =           0.00     PERCENT DISCREPANCY =           0.00






         TIME SUMMARY AT END OF TIME STEP    3 IN STRESS PERIOD    2
                    SECONDS     MINUTES      HOURS       DAYS        YEARS
                    -----------------------------------------------------------
   TIME STEP LENGTH  86400.      1440.0      24.000      1.0000     2.73785E-03
 STRESS PERIOD TIME 2.59200E+05  4320.0      72.000      3.0000     8.21355E-03
         TOTAL TIME 3.45600E+05  5760.0      96.000      4.0000     1.09514E-02
1
 
 SOLVING FOR HEAD 

 OUTPUT CONTROL FOR STRESS PERIOD    2   TIME STEP    4
    SAVE HEAD FOR ALL LAYERS
    SAVE DRAWDOWN FOR ALL LAYERS
    SAVE BUDGET
    PRINT HEAD FOR ALL LAYERS
    PRINT BUDGET
 UBDSV1 SAVING "         STORAGE" ON UNIT  53 AT TIME STEP  4, STRESS PERIOD   2
 UBDSV2 SAVING "   CONSTANT HEAD" ON UNIT  53 AT TIME STEP  4, STRESS PERIOD   2
 UBDSV1 SAVING "FLOW RIGHT FACE " ON UNIT  53 AT TIME STEP  4, STRESS PERIOD   2
 UBDSV1 SAVING "FLOW FRONT FACE " ON UNIT  53 AT TIME STEP  4, STRESS PERIOD   2
 UBDSV1 SAVING "FLOW LOWER FACE " ON UNIT  53 AT TIME STEP  4, STRESS PERIOD   2

 SAVING SATURATED THICKNESS AND FLOW TERMS ON UNIT   54 FOR MT3DMS
 BY THE LINK-MT3DMS PACKAGE V7 AT TIME STEP    4, STRESS PERIOD    2

1
              HEAD IN LAYER   1 AT END OF TIME STEP   4 IN STRESS PERIOD    2
  ---------------------------------------------------------------------------

            1           2           3           4           5           6           7           8           9          10
 ........................................................................................................................
   1    9.998       8.935       7.860       6.773       5.676       4.567       3.445       2.312       1.165      1.5190E-03
   2    9.998       8.935       7.860       6.774       5.676       4.567       3.445       2.312       1.165      1.5191E-03
   3    9.998       8.935       7.860       6.774       5.676       4.567       3.446       2.312       1.165      1.5191E-03
   4    9.998       8.935       7.860       6.774       5.678       4.571       3.447       2.312       1.166      1.5193E-03
   5    9.998       8.936       7.860       6.775       5.683       4.591       3.453       2.314       1.166      1.5196E-03
   6    9.998       8.936       7.861       6.778       5.700       4.747       3.470       2.316       1.166      1.5200E-03
   7    9.998       8.936       7.860       6.775       5.683       4.591       3.453       2.314       1.166      1.5196E-03
   8    9.998       8.935       7.860       6.774       5.678       4.571       3.447       2.312       1.166      1.5193E-03
   9    9.998       8.935       7.860       6.774       5.676       4.567       3.446       2.312       1.165      1.5191E-03
  10    9.998       8.935       7.860       6.774       5.676       4.567       3.445       2.312       1.165      1.5191E-03
1
              HEAD IN LAYER   2 AT END OF TIME STEP   4 IN STRESS PERIOD    2
  ---------------------------------------------------------------------------

            1           2           3           4           5           6           7           8           9          10
 ........................................................................................................................
   1    9.998       8.934       7.858       6.771       5.674       4.565       3.443       2.310       1.163      2.4986E-03
   2    9.998       8.934       7.858       6.772       5.674       4.565       3.443       2.310       1.163      2.4987E-03
   3    9.998       8.934       7.858       6.772       5.675       4.566       3.444       2.310       1.164      2.4988E-03
   4    9.998       8.934       7.858       6.773       5.677       4.571       3.446       2.311       1.164      2.4993E-03
   5    9.998       8.934       7.859       6.775       5.685       4.600       3.455       2.313       1.164      2.5002E-03
   6    9.998       8.934       7.859       6.778       5.709       4.833       3.478       2.316       1.165      2.5013E-03
   7    9.998       8.934       7.859       6.775       5.685       4.600       3.455       2.313       1.164      2.5002E-03
   8    9.998       8.934       7.858       6.773       5.677       4.571       3.446       2.311       1.164      2.4993E-03
   9    9.998       8.934       7.858       6.772       5.675       4.566       3.444       2.310       1.164      2.4988E-03
  10    9.998       8.934       7.858       6.772       5.674       4.565       3.444       2.310       1.163      2.4987E-03
1
              HEAD IN LAYER   3 AT END OF TIME STEP   4 IN STRESS PERIOD    2
  ---------------------------------------------------------------------------

            1           2           3           4           5           6           7           8           9          10
 ........................................................................................................................
   1    9.998       8.932       7.856       6.770       5.672       4.563       3.442       2.308       1.162      2.5478E-03
   2    9.998       8.932       7.856       6.770       5.672       4.563       3.442       2.308       1.162      2.5479E-03
   3    9.998       8.932       7.857       6.770       5.673       4.565       3.443       2.308       1.162      2.5481E-03
   4    9.998       8.932       7.857       6.771       5.676       4.571       3.446       2.310       1.162      2.5488E-03
   5    9.998       8.932       7.858       6.774       5.687       4.603       3.456       2.312       1.163      2.5501E-03
   6    9.998       8.933       7.858       6.778       5.712       4.759       3.481       2.316       1.163      2.5515E-03
   7    9.998       8.932       7.858       6.774       5.687       4.603       3.456       2.312       1.163      2.5501E-03
   8    9.998       8.932       7.857       6.771       5.676       4.571       3.446       2.310       1.162      2.5488E-03
   9    9.998       8.932       7.857       6.770       5.673       4.565       3.443       2.308       1.162      2.5481E-03
  10    9.998       8.932       7.857       6.770       5.672       4.563       3.442       2.308       1.162      2.5479E-03
1
              HEAD IN LAYER   4 AT END OF TIME STEP   4 IN STRESS PERIOD    2
  ---------------------------------------------------------------------------

            1           2           3           4           5           6           7           8           9          10
 ........................................................................................................................
   1    9.998       8.931       7.855       6.769       5.671       4.562       3.440       2.307       1.161      2.5476E-03
   2    9.998       8.931       7.855       6.769       5.671       4.562       3.441       2.307       1.161      2.5477E-03
   3    9.998       8.931       7.856       6.769       5.672       4.564       3.442       2.307       1.161      2.5480E-03
   4    9.998       8.931       7.856       6.771       5.676       4.571       3.445       2.309       1.161      2.5487E-03
   5    9.998       8.932       7.857       6.774       5.688       4.603       3.457       2.312       1.162      2.5503E-03
   6    9.998       8.932       7.858       6.778       5.712       4.716       3.482       2.316       1.163      2.5520E-03
   7    9.998       8.932       7.857       6.774       5.688       4.603       3.457       2.312       1.162      2.5503E-03
   8    9.998       8.931       7.856       6.771       5.676       4.571       3.445       2.309       1.161      2.5487E-03
   9    9.998       8.931       7.856       6.769       5.672       4.564       3.442       2.307       1.161      2.5480E-03
  10    9.998       8.931       7.855       6.769       5.671       4.562       3.441       2.307       1.161      2.5477E-03
1
              HEAD IN LAYER   5 AT END OF TIME STEP   4 IN STRESS PERIOD    2
  ---------------------------------------------------------------------------

            1           2           3           4           5           6           7           8           9          10
 ........................................................................................................................
   1    9.998       8.931       7.855       6.768       5.670       4.561       3.440       2.306       1.160      2.5465E-03
   2    9.998       8.931       7.855       6.768       5.671       4.562       3.440       2.306       1.160      2.5466E-03
   3    9.998       8.931       7.855       6.769       5.672       4.563       3.441       2.307       1.160      2.5469E-03
   4    9.998       8.931       7.856       6.770       5.676       4.571       3.445       2.308       1.161      2.5477E-03
   5    9.998       8.931       7.856       6.774       5.688       4.603       3.457       2.312       1.161      2.5494E-03
   6    9.998       8.931       7.857       6.778       5.712       4.696       3.481       2.316       1.162      2.5512E-03
   7    9.998       8.931       7.856       6.774       5.688       4.603       3.457       2.312       1.161      2.5494E-03
   8    9.998       8.931       7.856       6.770       5.676       4.571       3.445       2.308       1.161      2.5477E-03
   9    9.998       8.931       7.855       6.769       5.672       4.563       3.441       2.307       1.160      2.5469E-03
  10    9.998       8.931       7.855       6.768       5.671       4.562       3.440       2.306       1.160      2.5466E-03

 HEAD WILL BE SAVED ON UNIT   51 AT END OF TIME STEP    4, STRESS PERIOD    2

 DRAWDOWN WILL BE SAVED ON UNIT   52 AT END OF TIME STEP    4, STRESS PERIOD    2
1
  VOLUMETRIC BUDGET FOR ENTIRE MODEL AT END OF TIME STEP    4, STRESS PERIOD   2
  ------------------------------------------------------------------------------

     CUMULATIVE VOLUMES      L**3       RATES FOR THIS TIME STEP      L**3/T
     ------------------                 ------------------------

           IN:                                      IN:
           ---                                      ---
             STORAGE =           0.0000               STORAGE =           0.0000
       CONSTANT HEAD =           0.0000         CONSTANT HEAD =           0.0000
               WELLS =         400.0000                 WELLS =         100.0000
     HEAD DEP BOUNDS =        5829.4717       HEAD DEP BOUNDS =        1165.8174

            TOTAL IN =        6229.4717              TOTAL IN =        1265.8174

          OUT:                                     OUT:
          ----                                     ----
             STORAGE =         398.5295               STORAGE =          99.3448
       CONSTANT HEAD =           0.0000         CONSTANT HEAD =           0.0000
               WELLS =           0.0000                 WELLS =           0.0000
     HEAD DEP BOUNDS =        5830.8164       HEAD DEP BOUNDS =        1166.4434

           TOTAL OUT =        6229.3457             TOTAL OUT =        1265.7882

            IN - OUT =           0.1260              IN - OUT =       2.9175E-02

 PERCENT DISCREPANCY =           0.00     PERCENT DISCREPANCY =           0.00






         TIME SUMMARY AT END OF TIME STEP    4 IN STRESS PERIOD    2
                    SECONDS     MINUTES      HOURS       DAYS        YEARS
                    -----------------------------------------------------------
   TIME STEP LENGTH  86400.      1440.0      24.000      1.0000     2.73785E-03
 STRESS PERIOD TIME 3.45600E+05  5760.0      96.000      4.0000     1.09514E-02
         TOTAL TIME 4.32000E+05  7200.0      120.00      5.0000     1.36893E-02
1
 
 SOLVING FOR HEAD 

 OUTPUT CONTROL FOR STRESS PERIOD    2   TIME STEP    5
    SAVE HEAD FOR ALL LAYERS
    SAVE DRAWDOWN FOR ALL LAYERS
    SAVE BUDGET
    PRINT HEAD FOR ALL LAYERS
    PRINT BUDGET
 UBDSV1 SAVING "         STORAGE" ON UNIT  53 AT TIME STEP  5, STRESS PERIOD   2
 UBDSV2 SAVING "   CONSTANT HEAD" ON UNIT  53 AT TIME STEP  5, STRESS PERIOD   2
 UBDSV1 SAVING "FLOW RIGHT FACE " ON UNIT  53 AT TIME STEP  5, STRESS PERIOD   2
 UBDSV1 SAVING "FLOW FRONT FACE " ON UNIT  53 AT TIME STEP  5, STRESS PERIOD   2
 UBDSV1 SAVING "FLOW LOWER FACE " ON UNIT  53 AT TIME STEP  5, STRESS PERIOD   2

 SAVING SATURATED THICKNESS AND FLOW TERMS ON UNIT   54 FOR MT3DMS
 BY THE LINK-MT3DMS PACKAGE V7 AT TIME STEP    5, STRESS PERIOD    2

1
              HEAD IN LAYER   1 AT END OF TIME STEP   5 IN STRESS PERIOD    2
  ---------------------------------------------------------------------------

            1           2           3           4           5           6           7           8           9          10
 ........................................................................................................................
   1    9.998       8.935       7.860       6.773       5.676       4.567       3.445       2.312       1.165      1.5190E-03
[...]

            1           2           3           4           5           6           7           8           9          10
 ........................................................................................................................
   1    9.998       8.952       7.893       6.820       5.731       4.624       3.497       2.350       1.185      2.5451E-03
   2    9.998       8.953       7.896       6.825       5.738       4.632       3.504       2.355       1.187      2.5504E-03
   3    9.998       8.956       7.903       6.836       5.753       4.649       3.519       2.365       1.192      2.5609E-03
   4    9.998       8.960       7.911       6.851       5.778       4.682       3.543       2.380       1.199      2.5756E-03
   5    9.998       8.964       7.920       6.870       5.814       4.747       3.580       2.398       1.207      2.5914E-03
   6    9.998       8.965       7.925       6.883       5.856       4.952       3.623       2.411       1.211      2.6007E-03
   7    9.998       8.965       7.922       6.872       5.817       4.751       3.583       2.400       1.208      2.5940E-03
   8    9.998       8.962       7.915       6.857       5.785       4.689       3.549       2.384       1.202      2.5811E-03
   9    9.998       8.959       7.909       6.845       5.764       4.661       3.529       2.372       1.197      2.5698E-03
  10    9.998       8.958       7.906       6.839       5.755       4.649       3.519       2.366       1.194      2.5636E-03
1
              HEAD IN LAYER   3 AT END OF TIME STEP  99 IN STRESS PERIOD    3
  ---------------------------------------------------------------------------

            1           2           3           4           5           6           7           8           9          10
 ........................................................................................................................
   1    9.998       8.950       7.891       6.819       5.730       4.622       3.495       2.348       1.183      2.5951E-03
   2    9.998       8.952       7.895       6.824       5.737       4.630       3.502       2.353       1.186      2.6005E-03
   3    9.998       8.955       7.901       6.834       5.752       4.648       3.517       2.363       1.191      2.6111E-03
   4    9.998       8.959       7.910       6.850       5.776       4.680       3.541       2.378       1.197      2.6260E-03
   5    9.998       8.962       7.919       6.868       5.812       4.742       3.577       2.396       1.205      2.6421E-03
   6    9.998       8.964       7.924       6.881       5.851       4.884       3.617       2.408       1.209      2.6515E-03
   7    9.998       8.963       7.920       6.871       5.815       4.745       3.580       2.398       1.206      2.6447E-03
   8    9.998       8.961       7.914       6.856       5.783       4.687       3.547       2.382       1.200      2.6316E-03
   9    9.998       8.958       7.908       6.844       5.763       4.659       3.527       2.371       1.195      2.6202E-03
  10    9.998       8.957       7.904       6.837       5.753       4.647       3.517       2.364       1.192      2.6139E-03
1
              HEAD IN LAYER   4 AT END OF TIME STEP  99 IN STRESS PERIOD    3
  ---------------------------------------------------------------------------

            1           2           3           4           5           6           7           8           9          10
 ........................................................................................................................
   1    9.998       8.949       7.890       6.818       5.729       4.621       3.494       2.347       1.182      2.5948E-03
   2    9.998       8.951       7.894       6.823       5.736       4.629       3.501       2.352       1.185      2.6002E-03
   3    9.998       8.954       7.900       6.833       5.751       4.646       3.515       2.362       1.189      2.6107E-03
   4    9.998       8.958       7.909       6.849       5.775       4.678       3.540       2.376       1.196      2.6256E-03
   5    9.998       8.961       7.918       6.867       5.811       4.738       3.575       2.394       1.203      2.6416E-03
   6    9.998       8.963       7.923       6.880       5.847       4.844       3.612       2.407       1.208      2.6510E-03
   7    9.998       8.962       7.919       6.870       5.814       4.741       3.578       2.396       1.205      2.6443E-03
   8    9.998       8.960       7.913       6.854       5.782       4.685       3.546       2.381       1.199      2.6312E-03
   9    9.998       8.957       7.907       6.842       5.761       4.658       3.526       2.369       1.193      2.6198E-03
  10    9.998       8.956       7.903       6.836       5.752       4.646       3.516       2.363       1.191      2.6135E-03
1
              HEAD IN LAYER   5 AT END OF TIME STEP  99 IN STRESS PERIOD    3
  ---------------------------------------------------------------------------

            1           2           3           4           5           6           7           8           9          10
 ........................................................................................................................
   1    9.998       8.949       7.890       6.817       5.728       4.621       3.493       2.346       1.182      2.5937E-03
   2    9.998       8.951       7.893       6.822       5.735       4.628       3.500       2.351       1.184      2.5990E-03
   3    9.998       8.953       7.899       6.833       5.750       4.646       3.515       2.361       1.189      2.6096E-03
   4    9.998       8.957       7.908       6.848       5.774       4.678       3.539       2.376       1.196      2.6244E-03
   5    9.998       8.961       7.917       6.866       5.810       4.735       3.574       2.393       1.203      2.6404E-03
   6    9.998       8.963       7.922       6.879       5.844       4.826       3.610       2.406       1.207      2.6497E-03
   7    9.998       8.962       7.919       6.869       5.813       4.738       3.577       2.396       1.204      2.6430E-03
   8    9.998       8.959       7.912       6.854       5.781       4.685       3.545       2.380       1.198      2.6300E-03
   9    9.998       8.957       7.906       6.842       5.761       4.657       3.525       2.369       1.193      2.6186E-03
  10    9.998       8.955       7.903       6.836       5.751       4.645       3.515       2.362       1.190      2.6123E-03

 HEAD WILL BE SAVED ON UNIT   51 AT END OF TIME STEP   99, STRESS PERIOD    3

 DRAWDOWN WILL BE SAVED ON UNIT   52 AT END OF TIME STEP   99, STRESS PERIOD    3
1
  VOLUMETRIC BUDGET FOR ENTIRE MODEL AT END OF TIME STEP   99, STRESS PERIOD   3
  ------------------------------------------------------------------------------

     CUMULATIVE VOLUMES      L**3       RATES FOR THIS TIME STEP      L**3/T
     ------------------                 ------------------------

           IN:                                      IN:
           ---                                      ---
             STORAGE =         900.8165               STORAGE =           3.0283
       CONSTANT HEAD =           0.0000         CONSTANT HEAD =           0.0000
               WELLS =       15940.0000                 WELLS =          60.0000
     HEAD DEP BOUNDS =      229240.7031       HEAD DEP BOUNDS =        1137.8668

            TOTAL IN =      246081.5156              TOTAL IN =        1200.8951

          OUT:                                     OUT:
          ----                                     ----
             STORAGE =        7464.7754               STORAGE =           0.0000
       CONSTANT HEAD =           0.0000         CONSTANT HEAD =           0.0000
               WELLS =           0.0000                 WELLS =           0.0000
     HEAD DEP BOUNDS =      238609.8438       HEAD DEP BOUNDS =        1200.8553

           TOTAL OUT =      246074.6250             TOTAL OUT =        1200.8553

            IN - OUT =           6.8906              IN - OUT =       3.9795E-02

 PERCENT DISCREPANCY =           0.00     PERCENT DISCREPANCY =           0.00






         TIME SUMMARY AT END OF TIME STEP   99 IN STRESS PERIOD    3
                    SECONDS     MINUTES      HOURS       DAYS        YEARS
                    -----------------------------------------------------------
   TIME STEP LENGTH  86400.      1440.0      24.000      1.0000     2.73785E-03
 STRESS PERIOD TIME 8.55360E+06 1.42560E+05  2376.0      99.000     0.27105    
         TOTAL TIME 1.72800E+07 2.88000E+05  4800.0      200.00     0.54757    
1
 
 SOLVING FOR HEAD 

 OUTPUT CONTROL FOR STRESS PERIOD    3   TIME STEP  100
    SAVE HEAD FOR ALL LAYERS
    SAVE DRAWDOWN FOR ALL LAYERS
    SAVE BUDGET
    PRINT HEAD FOR ALL LAYERS
    PRINT BUDGET
 UBDSV1 SAVING "         STORAGE" ON UNIT  53 AT TIME STEP100, STRESS PERIOD   3
 UBDSV2 SAVING "   CONSTANT HEAD" ON UNIT  53 AT TIME STEP100, STRESS PERIOD   3
 UBDSV1 SAVING "FLOW RIGHT FACE " ON UNIT  53 AT TIME STEP100, STRESS PERIOD   3
 UBDSV1 SAVING "FLOW FRONT FACE " ON UNIT  53 AT TIME STEP100, STRESS PERIOD   3
 UBDSV1 SAVING "FLOW LOWER FACE " ON UNIT  53 AT TIME STEP100, STRESS PERIOD   3

 SAVING SATURATED THICKNESS AND FLOW TERMS ON UNIT   54 FOR MT3DMS
 BY THE LINK-MT3DMS PACKAGE V7 AT TIME STEP  100, STRESS PERIOD    3

1
              HEAD IN LAYER   1 AT END OF TIME STEP 100 IN STRESS PERIOD    3
  ---------------------------------------------------------------------------

            1           2           3           4           5           6           7           8           9          10
 ........................................................................................................................
   1    9.998       8.953       7.895       6.822       5.733       4.626       3.499       2.352       1.187      1.5484E-03
   2    9.998       8.955       7.898       6.827       5.740       4.634       3.506       2.357       1.190      1.5517E-03
   3    9.998       8.958       7.904       6.838       5.755       4.652       3.521       2.367       1.194      1.5584E-03
   4    9.998       8.962       7.913       6.853       5.780       4.684       3.545       2.382       1.201      1.5677E-03
   5    9.998       8.965       7.922       6.872       5.816       4.750       3.582       2.400       1.209      1.5777E-03
   6    9.998       8.967       7.927       6.885       5.859       4.930       3.626       2.413       1.213      1.5837E-03
   7    9.998       8.966       7.924       6.874       5.820       4.754       3.585       2.402       1.210      1.5793E-03
   8    9.998       8.964       7.917       6.859       5.787       4.691       3.552       2.387       1.204      1.5712E-03
   9    9.998       8.961       7.911       6.847       5.766       4.663       3.531       2.375       1.199      1.5640E-03
  10    9.998       8.960       7.908       6.841       5.757       4.651       3.521       2.368       1.196      1.5601E-03
1
              HEAD IN LAYER   2 AT END OF TIME STEP 100 IN STRESS PERIOD    3
  ---------------------------------------------------------------------------

            1           2           3           4           5           6           7           8           9          10
 ........................................................................................................................
   1    9.998       8.952       7.893       6.820       5.731       4.624       3.497       2.350       1.185      2.5451E-03
   2    9.998       8.953       7.896       6.825       5.738       4.632       3.504       2.355       1.187      2.5504E-03
   3    9.998       8.956       7.903       6.836       5.753       4.649       3.518       2.365       1.192      2.5608E-03
   4    9.998       8.960       7.911       6.851       5.778       4.682       3.543       2.380       1.199      2.5755E-03
   5    9.998       8.964       7.920       6.870       5.814       4.747       3.580       2.398       1.207      2.5913E-03
   6    9.998       8.965       7.925       6.883       5.856       4.952       3.622       2.411       1.211      2.6007E-03
   7    9.998       8.965       7.922       6.872       5.817       4.751       3.583       2.400       1.208      2.5940E-03
   8    9.998       8.962       7.915       6.857       5.785       4.689       3.549       2.384       1.202      2.5810E-03
   9    9.998       8.959       7.909       6.845       5.764       4.661       3.529       2.372       1.196      2.5698E-03
  10    9.998       8.958       7.906       6.839       5.755       4.649       3.519       2.366       1.194      2.5636E-03
1
              HEAD IN LAYER   3 AT END OF TIME STEP 100 IN STRESS PERIOD    3
  ---------------------------------------------------------------------------

            1           2           3           4           5           6           7           8           9          10
 ........................................................................................................................
   1    9.998       8.950       7.891       6.819       5.730       4.622       3.495       2.348       1.183      2.5951E-03
   2    9.998       8.952       7.895       6.824       5.737       4.630       3.502       2.353       1.186      2.6005E-03
   3    9.998       8.955       7.901       6.834       5.752       4.648       3.517       2.363       1.190      2.6111E-03
   4    9.998       8.959       7.910       6.850       5.776       4.680       3.541       2.378       1.197      2.6260E-03
   5    9.998       8.962       7.918       6.868       5.812       4.742       3.577       2.396       1.205      2.6420E-03
   6    9.998       8.964       7.924       6.881       5.851       4.884       3.617       2.408       1.209      2.6515E-03
   7    9.998       8.963       7.920       6.871       5.815       4.745       3.580       2.398       1.206      2.6447E-03
   8    9.998       8.961       7.914       6.856       5.783       4.687       3.547       2.382       1.200      2.6316E-03
   9    9.998       8.958       7.907       6.844       5.763       4.659       3.527       2.370       1.195      2.6201E-03
  10    9.998       8.957       7.904       6.837       5.753       4.647       3.517       2.364       1.192      2.6138E-03
1
              HEAD IN LAYER   4 AT END OF TIME STEP 100 IN STRESS PERIOD    3
  ---------------------------------------------------------------------------

            1           2           3           4           5           6           7           8           9          10
 ........................................................................................................................
   1    9.998       8.949       7.890       6.818       5.729       4.621       3.494       2.347       1.182      2.5948E-03
   2    9.998       8.951       7.894       6.823       5.736       4.629       3.501       2.352       1.184      2.6001E-03
   3    9.998       8.954       7.900       6.833       5.751       4.646       3.515       2.362       1.189      2.6107E-03
   4    9.998       8.958       7.909       6.849       5.775       4.678       3.540       2.376       1.196      2.6256E-03
   5    9.998       8.961       7.917       6.867       5.810       4.737       3.575       2.394       1.203      2.6416E-03
   6    9.998       8.963       7.923       6.880       5.847       4.844       3.612       2.407       1.208      2.6510E-03
   7    9.998       8.962       7.919       6.870       5.814       4.741       3.578       2.396       1.205      2.6442E-03
   8    9.998       8.960       7.913       6.854       5.782       4.685       3.546       2.381       1.199      2.6312E-03
   9    9.998       8.957       7.906       6.842       5.761       4.658       3.526       2.369       1.193      2.6197E-03
  10    9.998       8.956       7.903       6.836       5.752       4.646       3.516       2.363       1.191      2.6135E-03
1
              HEAD IN LAYER   5 AT END OF TIME STEP 100 IN STRESS PERIOD    3
  ---------------------------------------------------------------------------

            1           2           3           4           5           6           7           8           9          10
 ........................................................................................................................
   1    9.998       8.949       7.890       6.817       5.728       4.621       3.493       2.346       1.181      2.5937E-03
   2    9.998       8.951       7.893       6.822       5.735       4.628       3.500       2.351       1.184      2.5990E-03
   3    9.998       8.953       7.899       6.833       5.750       4.646       3.515       2.361       1.189      2.6095E-03
   4    9.998       8.957       7.908       6.848       5.774       4.678       3.539       2.376       1.196      2.6244E-03
   5    9.998       8.961       7.917       6.866       5.810       4.735       3.574       2.393       1.203      2.6404E-03
   6    9.998       8.963       7.922       6.879       5.844       4.826       3.610       2.406       1.207      2.6497E-03
   7    9.998       8.962       7.919       6.869       5.813       4.738       3.577       2.396       1.204      2.6430E-03
   8    9.998       8.959       7.912       6.854       5.781       4.684       3.545       2.380       1.198      2.6300E-03
   9    9.998       8.957       7.906       6.842       5.761       4.657       3.525       2.369       1.193      2.6185E-03
  10    9.998       8.955       7.902       6.836       5.751       4.645       3.515       2.362       1.190      2.6123E-03

 HEAD WILL BE SAVED ON UNIT   51 AT END OF TIME STEP  100, STRESS PERIOD    3

 DRAWDOWN WILL BE SAVED ON UNIT   52 AT END OF TIME STEP  100, STRESS PERIOD    3
1
  VOLUMETRIC BUDGET FOR ENTIRE MODEL AT END OF TIME STEP  100, STRESS PERIOD   3
  ------------------------------------------------------------------------------

     CUMULATIVE VOLUMES      L**3       RATES FOR THIS TIME STEP      L**3/T
     ------------------                 ------------------------

           IN:                                      IN:
           ---                                      ---
             STORAGE =         903.8112               STORAGE =           2.9947
       CONSTANT HEAD =           0.0000         CONSTANT HEAD =           0.0000
               WELLS =       16000.0000                 WELLS =          60.0000
     HEAD DEP BOUNDS =      230378.5781       HEAD DEP BOUNDS =        1137.8807

            TOTAL IN =      247282.3906              TOTAL IN =        1200.8754

          OUT:                                     OUT:
          ----                                     ----
             STORAGE =        7464.7754               STORAGE =           0.0000
       CONSTANT HEAD =           0.0000         CONSTANT HEAD =           0.0000
               WELLS =           0.0000                 WELLS =           0.0000
     HEAD DEP BOUNDS =      239810.6875       HEAD DEP BOUNDS =        1200.8362

           TOTAL OUT =      247275.4688             TOTAL OUT =        1200.8362

            IN - OUT =           6.9219              IN - OUT =       3.9185E-02

 PERCENT DISCREPANCY =           0.00     PERCENT DISCREPANCY =           0.00






         TIME SUMMARY AT END OF TIME STEP  100 IN STRESS PERIOD    3
                    SECONDS     MINUTES      HOURS       DAYS        YEARS
                    -----------------------------------------------------------
   TIME STEP LENGTH  86400.      1440.0      24.000      1.0000     2.73785E-03
 STRESS PERIOD TIME 8.64000E+06 1.44000E+05  2400.0      100.00     0.27379    
         TOTAL TIME 1.73664E+07 2.89440E+05  4824.0      201.00     0.55031    
1

 Run end date and time (yyyy/mm/dd hh:mm:ss): 2019/07/29 13:15:29
 Elapsed run time:  0.545 Seconds

