                                  MODFLOW-2005     
      U.S. GEOLOGICAL SURVEY MODULAR FINITE-DIFFERENCE GROUND-WATER FLOW MODEL
                            VERSION 1.12.00 2/3/2017

 LIST FILE: Tutorial02wMT3DMS2.list
                         UNIT    2

 OPENING Tutorial02wMT3DMS2.dis
 FILE TYPE:DIS   UNIT   11   STATUS:OLD    
 FORMAT:FORMATTED              ACCESS:SEQUENTIAL          

 OPENING Tutorial02wMT3DMS2.bas
 FILE TYPE:BAS6   UNIT   13   STATUS:OLD    
 FORMAT:FORMATTED              ACCESS:SEQUENTIAL          

 OPENING Tutorial02wMT3DMS2.lpf
 FILE TYPE:LPF   UNIT   15   STATUS:OLD    
 FORMAT:FORMATTED              ACCESS:SEQUENTIAL          

 OPENING Tutorial02wMT3DMS2.pcg
 FILE TYPE:PCG   UNIT   27   STATUS:OLD    
 FORMAT:FORMATTED              ACCESS:SEQUENTIAL          

 OPENING Tutorial02wMT3DMS2.wel
 FILE TYPE:WEL   UNIT   20   STATUS:OLD    
 FORMAT:FORMATTED              ACCESS:SEQUENTIAL          

 OPENING Tutorial02wMT3DMS2.rch
 FILE TYPE:RCH   UNIT   19   STATUS:OLD    
 FORMAT:FORMATTED              ACCESS:SEQUENTIAL          

 OPENING Tutorial02wMT3DMS2.lmt6
 FILE TYPE:LMT6   UNIT   30   STATUS:OLD    
 FORMAT:FORMATTED              ACCESS:SEQUENTIAL          

 OPENING Tutorial02wMT3DMS2.cbc
 FILE TYPE:DATA(BINARY)   UNIT   53   STATUS:REPLACE
 FORMAT:UNFORMATTED            ACCESS:STREAM              

 BAS -- BASIC PACKAGE, VERSION 7, 5/2/2005 INPUT READ FROM UNIT   13
 
 MODFLOW was compiled using mixed precision
 Precision of REAL variables:           6
 Precision of DOUBLE PRECISION variables:          15

 DISCRETIZATION INPUT DATA READ FROM UNIT   11
 # DIS package for  MODFLOW-2005, generated by Flopy.
    4 LAYERS        61 ROWS        40 COLUMNS
    1 STRESS PERIOD(S) IN SIMULATION
 MODEL TIME UNIT IS DAYS
 MODEL LENGTH UNIT IS METERS
  Confining bed flag for each layer:
   0   0   0   0



                               DELR
 READING ON UNIT   11 WITH FORMAT: (40E15.6)           



                               DELC
 READING ON UNIT   11 WITH FORMAT: (61E15.6)           

 TOP ELEVATION OF LAYER 1 =   780.000    

   MODEL LAYER BOTTOM EL. =   755.000     FOR LAYER   1

   MODEL LAYER BOTTOM EL. =   730.000     FOR LAYER   2

   MODEL LAYER BOTTOM EL. =   705.000     FOR LAYER   3

   MODEL LAYER BOTTOM EL. =   680.000     FOR LAYER   4


 STRESS PERIOD     LENGTH       TIME STEPS     MULTIPLIER FOR DELT    SS FLAG
 ----------------------------------------------------------------------------
        1         1000.000          1                    1.000         SS

 STEADY-STATE SIMULATION



 
 # BAS6 package for  MODFLOW-2005, generated by Flopy.                           
 THE FREE FORMAT OPTION HAS BEEN SELECTED



                     BOUNDARY ARRAY FOR LAYER   1
 READING ON UNIT   13 WITH FORMAT: (40I10)             



                     BOUNDARY ARRAY FOR LAYER   2
 READING ON UNIT   13 WITH FORMAT: (40I10)             



                     BOUNDARY ARRAY FOR LAYER   3
 READING ON UNIT   13 WITH FORMAT: (40I10)             



                     BOUNDARY ARRAY FOR LAYER   4
 READING ON UNIT   13 WITH FORMAT: (40I10)             

 AQUIFER HEAD WILL BE SET TO  -999.99     AT ALL NO-FLOW NODES (IBOUND=0).



                       INITIAL HEAD FOR LAYER   1
 READING ON UNIT   13 WITH FORMAT: (40E15.6)           



                       INITIAL HEAD FOR LAYER   2
 READING ON UNIT   13 WITH FORMAT: (40E15.6)           



                       INITIAL HEAD FOR LAYER   3
 READING ON UNIT   13 WITH FORMAT: (40E15.6)           



                       INITIAL HEAD FOR LAYER   4
 READING ON UNIT   13 WITH FORMAT: (40E15.6)           

 DEFAULT OUTPUT CONTROL
 THE FOLLOWING OUTPUT COMES AT THE END OF EACH STRESS PERIOD:
 TOTAL VOLUMETRIC BUDGET
           HEAD

 LPF -- LAYER-PROPERTY FLOW PACKAGE, VERSION 7, 5/2/2005
         INPUT READ FROM UNIT   15
 # LPF package for  MODFLOW-2005, generated by Flopy.
 CELL-BY-CELL FLOWS WILL BE SAVED ON UNIT   53
 HEAD AT CELLS THAT CONVERT TO DRY= -1.00000E+30
 No named parameters

   LAYER FLAGS:
 LAYER       LAYTYP        LAYAVG         CHANI        LAYVKA        LAYWET
 ---------------------------------------------------------------------------
    1             0             0     1.000E+00             1             0
    2             0             0     1.000E+00             1             0
    3             0             0     1.000E+00             1             0
    4             0             0     1.000E+00             1             0

   INTERPRETATION OF LAYER FLAGS:
                        INTERBLOCK     HORIZONTAL    DATA IN
         LAYER TYPE   TRANSMISSIVITY   ANISOTROPY   ARRAY VKA   WETTABILITY
 LAYER      (LAYTYP)      (LAYAVG)       (CHANI)      (LAYVKA)      (LAYWET)
 ---------------------------------------------------------------------------
    1      CONFINED      HARMONIC     1.000E+00    ANISOTROPY  NON-WETTABLE
    2      CONFINED      HARMONIC     1.000E+00    ANISOTROPY  NON-WETTABLE
    3      CONFINED      HARMONIC     1.000E+00    ANISOTROPY  NON-WETTABLE
    4      CONFINED      HARMONIC     1.000E+00    ANISOTROPY  NON-WETTABLE

 WETTING CAPABILITY IS NOT ACTIVE IN ANY LAYER

    HYD. COND. ALONG ROWS =   60.0000     FOR LAYER   1

  HORIZ. TO VERTICAL ANI. =  0.100000     FOR LAYER   1

    HYD. COND. ALONG ROWS =   60.0000     FOR LAYER   2

  HORIZ. TO VERTICAL ANI. =  0.100000     FOR LAYER   2

    HYD. COND. ALONG ROWS =   520.000     FOR LAYER   3

  HORIZ. TO VERTICAL ANI. =  0.100000     FOR LAYER   3

    HYD. COND. ALONG ROWS =   520.000     FOR LAYER   4

  HORIZ. TO VERTICAL ANI. =  0.100000     FOR LAYER   4

 WEL -- WELL PACKAGE, VERSION 7, 5/2/2005 INPUT READ FROM UNIT   20
 # WEL package for  MODFLOW-2005, generated by Flopy.
 No named parameters
 MAXIMUM OF      8 ACTIVE WELLS AT ONE TIME


     0 Well parameters

 RCH -- RECHARGE PACKAGE, VERSION 7, 5/2/2005 INPUT READ FROM UNIT   19
 # RCH package for  MODFLOW-2005, generated by Flopy.
 No named parameters
 OPTION 3 -- RECHARGE TO HIGHEST ACTIVE NODE IN EACH VERTICAL COLUMN


     0 Recharge parameters

 PCG -- CONJUGATE-GRADIENT SOLUTION PACKAGE, VERSION 7, 5/2/2005
 # PCG package for  MODFLOW-2005, generated by Flopy.
 MAXIMUM OF     50 CALLS OF SOLUTION ROUTINE
 MAXIMUM OF     30 INTERNAL ITERATIONS PER CALL TO SOLUTION ROUTINE
 MATRIX PRECONDITIONING TYPE :    1



                                    SOLUTION BY THE CONJUGATE-GRADIENT METHOD
                                   -------------------------------------------
                    MAXIMUM NUMBER OF CALLS TO PCG ROUTINE =       50
                        MAXIMUM ITERATIONS PER CALL TO PCG =       30
                               MATRIX PRECONDITIONING TYPE =        1
        RELAXATION FACTOR (ONLY USED WITH PRECOND. TYPE 1) =    0.10000E+01
 PARAMETER OF POLYNOMIAL PRECOND. = 2 (2) OR IS CALCULATED :        0
                         HEAD CHANGE CRITERION FOR CLOSURE =    0.10000E-04
                     RESIDUAL CHANGE CRITERION FOR CLOSURE =    0.10000E-04
            PCG HEAD AND RESIDUAL CHANGE PRINTOUT INTERVAL =      999
     PRINTING FROM SOLVER IS LIMITED(1) OR SUPPRESSED (>1) =        3
                            STEADY-STATE DAMPING PARAMETER =    0.10000E+01
                               TRANSIENT DAMPING PARAMETER =    0.10000E+01


 ***Link-MT3DMS Package v7***
 OPENING LINK-MT3DMS OUTPUT FILE: mt3d_link.ftl                                                                                                                                                                                           
 ON UNIT NUMBER:    54
 FILE TYPE: UNFORMATTED
 HEADER OPTION: EXTENDED
 ***Link-MT3DMS Package v7***

1
                            STRESS PERIOD NO.    1, LENGTH =   1000.000    
                            -----------------------------------------------

                              NUMBER OF TIME STEPS =     1

                               MULTIPLIER FOR DELT =     1.000

                            INITIAL TIME STEP SIZE =   1000.000    

 WELL NO.  LAYER   ROW   COL   STRESS RATE         
 --------------------------------------------------
      1      3     11     29     -0.1923E+05
      2      3     19     26     -0.1923E+05
      3      3     26     23     -0.1923E+05
      4      3     33     20     -0.1923E+05
      5      3     40     17     -0.1923E+05
      6      3     48     14     -0.1923E+05
      7      3     48      9     -0.1538E+05
      8      3     52     17     -0.1731E+05

      8 WELLS

                 RECHARGE =  1.140000E-03
 
 SOLVING FOR HEAD 

 SAVING SATURATED THICKNESS AND FLOW TERMS ON UNIT   54 FOR MT3DMS
 BY THE LINK-MT3DMS PACKAGE V7 AT TIME STEP    1, STRESS PERIOD    1

1
              HEAD IN LAYER   1 AT END OF TIME STEP   1 IN STRESS PERIOD    1
  ---------------------------------------------------------------------------

            1           2           3           4           5           6           7           8           9          10
           11          12          13          14          15          16          17          18          19          20
           21          22          23          24          25          26          27          28          29          30
           31          32          33          34          35          36          37          38          39          40
 ........................................................................................................................
   1    1.000       1.202       1.275       1.298       1.306       1.309       1.310       1.311       1.312       1.313    
        1.313       1.314       1.315       1.315       1.315       1.316       1.316       1.316       1.316       1.316    
        1.316       1.316       1.316       1.316       1.316       1.315       1.315       1.315       1.314       1.313    
        1.313       1.312       1.311       1.310       1.309       1.306       1.298       1.275       1.202       1.000    
   2    1.000       1.174       1.233       1.251       1.257       1.260       1.261       1.261       1.262       1.262    
        1.263       1.263       1.264       1.264       1.264       1.265       1.265       1.265       1.265       1.265    
        1.265       1.265       1.265       1.265       1.264       1.264       1.264       1.264       1.263       1.263    
        1.262       1.262       1.261       1.260       1.259       1.257       1.250       1.232       1.174       1.000    
   3    1.000       1.109       1.132       1.136       1.137       1.138       1.138       1.138       1.138       1.138    
        1.138       1.138       1.138       1.138       1.138       1.138       1.138       1.138       1.138       1.138    
        1.138       1.138       1.138       1.138       1.138       1.137       1.137       1.137       1.137       1.137    
        1.137       1.137       1.136       1.136       1.136       1.135       1.134       1.129       1.106       1.000    
   4    1.000       1.000      0.9512      0.9253      0.9139      0.9089      0.9065      0.9051      0.9037      0.9023    
       0.9011      0.8999      0.8989      0.8979      0.8970      0.8962      0.8955      0.8949      0.8944      0.8939    
       0.8937      0.8935      0.8934      0.8934      0.8935      0.8938      0.8941      0.8945      0.8951      0.8958    
       0.8965      0.8974      0.8984      0.8994      0.9012      0.9052      0.9152      0.9406      0.9939       1.000    
   5    1.000      0.9022      0.7608      0.6835      0.6474      0.6308      0.6229      0.6178      0.6130      0.6083    
       0.6038      0.5996      0.5956      0.5918      0.5884      0.5852      0.5824      0.5799      0.5777      0.5759    
       0.5744      0.5734      0.5727      0.5724      0.5726      0.5732      0.5742      0.5757      0.5776      0.5799    
       0.5826      0.5857      0.5893      0.5932      0.5996      0.6143      0.6502      0.7348      0.8927       1.000    
   6    1.000      0.8533      0.6532      0.5338      0.4731      0.4434      0.4289      0.4194      0.4100      0.4008    
       0.3919      0.3831      0.3747      0.3665      0.3587      0.3513      0.3443      0.3379      0.3319      0.3266    
       0.3219      0.3180      0.3149      0.3127      0.3115      0.3114      0.3124      0.3146      0.3181      0.3227    
       0.3286      0.3356      0.3435      0.3524      0.3669      0.3996      0.4728      0.6188      0.8449       1.000    
   7    1.000      0.8305      0.5996      0.4551      0.3785      0.3398      0.3205      0.3077      0.2949      0.2822    
       0.2696      0.2571      0.2447      0.2325      0.2205      0.2087      0.1972      0.1860      0.1752      0.1649    
       0.1551      0.1460      0.1378      0.1307      0.1249      0.1209      0.1192      0.1202      0.1246      0.1325    
       0.1436      0.1572      0.1728      0.1897      0.2163      0.2718      0.3796      0.5643      0.8239       1.000    
   8    1.000      0.8198      0.5734      0.4157      0.3304      0.2868      0.2648      0.2501      0.2354      0.2206    
       0.2059      0.1912      0.1765      0.1619      0.1473      0.1329      0.1185      0.1043      9.0147E-02  7.6173E-02
       6.2346E-02  4.8671E-02  3.5167E-02  2.1904E-02  9.0885E-03 -2.7516E-03 -1.2450E-02 -1.7763E-02 -1.5232E-02 -1.8514E-03
       1.9106E-02  4.3938E-02  7.0200E-02  9.6585E-02  0.1354      0.2083      0.3357      0.5393      0.8145       1.000    
   9    1.000      0.8146      0.5606      0.3960      0.3063      0.2601      0.2367      0.2210      0.2053      0.1895    
       0.1737      0.1579      0.1420      0.1261      0.1102      9.4365E-02  7.8521E-02  6.2699E-02  4.6892E-02  3.1077E-02
       1.5204E-02 -8.2333E-04 -1.7173E-02 -3.4116E-02 -5.2031E-02 -7.1293E-02 -9.1703E-02 -0.1106     -0.1180     -9.2065E-02
      -5.5054E-02 -1.7299E-02  1.8247E-02  5.1198E-02  9.7150E-02  0.1785      0.3150      0.5275      0.8100       1.000    
  10    1.000      0.8112      0.5521      0.3830      0.2903      0.2423      0.2180      0.2016      0.1852      0.1687    
       0.1522      0.1356      0.1189      0.1021      8.5376E-02  6.8575E-02  5.1743E-02  3.4877E-02  1.7964E-02  9.7234E-04
      -1.6169E-02 -3.3596E-02 -5.1572E-02 -7.0587E-02 -9.1530E-02 -0.1159     -0.1462     -0.1840     -0.2193     -0.1633    
      -0.1053     -5.6011E-02 -1.3891E-02  2.3157E-02  7.3285E-02  0.1596      0.3018      0.5200      0.8072       1.000    
  11    1.000      0.8079      0.5437      0.3701      0.2743      0.2245      0.1992      0.1822      0.1651      0.1479    
       0.1306      0.1132      9.5711E-02  7.8125E-02  6.0459E-02  4.2717E-02  2.4899E-02  7.0033E-03 -1.0982E-02 -2.9082E-02
      -4.7353E-02 -6.5917E-02 -8.5029E-02 -0.1052     -0.1277     -0.1549     -0.1930     -0.2589     -0.3929     -0.2355    
      -0.1470     -8.7620E-02 -4.1055E-02 -1.3535E-03  5.1638E-02  0.1420      0.2892      0.5127      0.8044       1.000    
  12    1.000      0.8047      0.5355      0.3572      0.2583      0.2068      0.1805      0.1629      0.1451      0.1271    
       0.1091      9.0860E-02  7.2534E-02  5.4086E-02  3.5520E-02  1.6836E-02 -1.9639E-03 -2.0879E-02 -3.9911E-02 -5.9062E-02
      -7.8343E-02 -9.7788E-02 -0.1175     -0.1377     -0.1591     -0.1830     -0.2115     -0.2468     -0.2790     -0.2199    
      -0.1589     -0.1065     -6.1454E-02 -2.1588E-02  3.2502E-02  0.1256      0.2772      0.5057      0.8018       1.000    
  13    1.000      0.8016      0.5274      0.3445      0.2424      0.1891      0.1619      0.1435      0.1250      0.1064    
       8.7530E-02  6.8535E-02  4.9381E-02  3.0069E-02  1.0599E-02 -9.0273E-03 -2.8810E-02 -4.8744E-02 -6.8820E-02 -8.9011E-02
      -0.1093     -0.1295     -0.1495     -0.1692     -0.1882     -0.2064     -0.2233     -0.2366     -0.2373     -0.2052    
      -0.1621     -0.1183     -7.6743E-02 -3.8115E-02  1.5786E-02  0.1105      0.2658      0.4991      0.7993       1.000    
  14    1.000      0.7985      0.5194      0.3318      0.2267      0.1715      0.1433      0.1243      0.1051      8.5660E-02
       6.6063E-02  4.6272E-02  2.6288E-02  6.1103E-03 -1.4263E-02 -3.4833E-02 -5.5602E-02 -7.6566E-02 -9.7710E-02 -0.1190    
      -0.1403     -0.1615     -0.1821     -0.2014     -0.2183     -0.2313     -0.2389     -0.2390     -0.2280     -0.2016    
      -0.1662     -0.1277     -8.9243E-02 -5.2046E-02  1.1469E-03  9.6817E-02  0.2552      0.4928      0.7969       1.000    
  15    1.000      0.7955      0.5116      0.3193      0.2110      0.1540      0.1248      0.1051      8.5194E-02  6.5055E-02
       4.4691E-02  2.4104E-02  3.2907E-03 -1.7751E-02 -3.9026E-02 -6.0539E-02 -8.2297E-02 -0.1043     -0.1266     -0.1490    
      -0.1716     -0.1941     -0.2160     -0.2360     -0.2523     -0.2618     -0.2619     -0.2527     -0.2343     -0.2069    
      -0.1735     -0.1373     -0.1005     -6.4339E-02 -1.1805E-02  8.4373E-02  0.2453      0.4868      0.7946       1.000    
  16    1.000      0.7927      0.5040      0.3070      0.1955      0.1366      0.1065      8.6076E-02  6.5451E-02  4.4574E-02
       2.3446E-02  2.0632E-03 -1.9577E-02 -4.1478E-02 -6.3649E-02 -8.6098E-02 -0.1088     -0.1319     -0.1553     -0.1790    
      -0.2032     -0.2275     -0.2518     -0.2746     -0.2931     -0.3018     -0.2944     -0.2757     -0.2495     -0.2183    
      -0.1837     -0.1477     -0.1113     -7.5552E-02 -2.3372E-02  7.3139E-02  0.2362      0.4812      0.7925       1.000    
  17    1.000      0.7899      0.4965      0.2948      0.1801      0.1194      8.8255E-02  6.7196E-02  4.5860E-02  2.4248E-02
       2.3559E-03 -1.9819E-02 -4.2280E-02 -6.5035E-02 -8.8091E-02 -0.1115     -0.1352     -0.1592     -0.1837     -0.2088    
      -0.2345     -0.2612     -0.2890     -0.3175     -0.3438     -0.3579     -0.3385     -0.3061     -0.2701     -0.2330    
      -0.1956     -0.1584     -0.1217     -8.5861E-02 -3.3730E-02  6.3055E-02  0.2278      0.4759      0.7905       1.000    
  18    1.000      0.7872      0.4892      0.2829      0.1650      0.1024      7.0237E-02  4.8493E-02  2.6449E-02  4.1022E-03
      -1.8550E-02 -4.1511E-02 -6.4788E-02 -8.8388E-02 -0.1123     -0.1366     -0.1612     -0.1863     -0.2118     -0.2379    
      -0.2651     -0.2939     -0.3257     -0.3628     -0.4067     -0.4471     -0.3955     -0.3403     -0.2917     -0.2481    
      -0.2074     -0.1686     -0.1313     -9.5194E-02 -4.2941E-02  5.4075E-02  0.2201      0.4711      0.7886       1.000    
  19    1.000      0.7847      0.4821      0.2711      0.1500      8.5576E-02  5.2418E-02  2.9991E-02  7.2409E-03 -1.5836E-02
      -3.9244E-02 -6.2987E-02 -8.7073E-02 -0.1115     -0.1363     -0.1615     -0.1870     -0.2129     -0.2393     -0.2662    
      -0.2940     -0.3236     -0.3574     -0.4012     -0.4718     -0.6095     -0.4549     -0.3679     -0.3085     -0.2603    
      -0.2175     -0.1776     -0.1397     -0.1034     -5.1001E-02  4.6161E-02  0.2132      0.4666      0.7868       1.000    
  20    1.000      0.7822      0.4752      0.2596      0.1352      6.8970E-02  3.4823E-02  1.1715E-02 -1.1739E-02 -3.5542E-02
      -5.9700E-02 -8.4219E-02 -0.1091     -0.1344     -0.1600     -0.1860     -0.2124     -0.2392     -0.2663     -0.2936    
      -0.3212     -0.3494     -0.3791     -0.4122     -0.4509     -0.4855     -0.4278     -0.3672     -0.3142     -0.2674    
      -0.2246     -0.1846     -0.1466     -0.1103     -5.7895E-02  3.9285E-02  0.2071      0.4625      0.7852       1.000    
  21    1.000      0.7799      0.4686      0.2483      0.1207      5.2605E-02  1.7472E-02 -6.3134E-03 -3.0466E-02 -5.4991E-02
      -7.9894E-02 -0.1052     -0.1309     -0.1569     -0.1834     -0.2104     -0.2377     -0.2653     -0.2931     -0.3208    
      -0.3480     -0.3737     -0.3973     -0.4178     -0.4330     -0.4346     -0.4026     -0.3590     -0.3139     -0.2704    
      -0.2291     -0.1897     -0.1520     -0.1158     -6.3625E-02  3.3418E-02  0.2016      0.4588      0.7837       1.000    
  22    1.000      0.7776      0.4622      0.2373      0.1065      3.6503E-02  3.8765E-04 -2.4073E-02 -4.8921E-02 -7.4161E-02
      -9.9800E-02 -0.1258     -0.1523     -0.1792     -0.2066     -0.2344     -0.2626     -0.2913     -0.3202     -0.3488    
      -0.3762     -0.4004     -0.4188     -0.4286     -0.4288     -0.4169     -0.3891     -0.3523     -0.3121     -0.2715    
      -0.2317     -0.1932     -0.1560     -0.1201     -6.8224E-02  2.8530E-02  0.1970      0.4555      0.7824       1.000    
  23    1.000      0.7755      0.4560      0.2265      9.2477E-02  2.0683E-02 -1.6411E-02 -4.1543E-02 -6.7081E-02 -9.3030E-02
      -0.1194     -0.1462     -0.1734     -0.2011     -0.2293     -0.2580     -0.2873     -0.3172     -0.3476     -0.3781    
      -0.4075     -0.4331     -0.4491     -0.4490     -0.4367     -0.4150     -0.3848     -0.3491     -0.3108     -0.2718    
      -0.2331     -0.1954     -0.1588     -0.1233     -7.1746E-02  2.4588E-02  0.1930      0.4525      0.7811       1.000    
  24    1.000      0.7736      0.4501      0.2161      7.8802E-02  5.1631E-03 -3.2906E-02 -5.8706E-02 -8.4928E-02 -0.1116    
      -0.1387     -0.1662     -0.1942     -0.2227     -0.2516     -0.2812     -0.3115     -0.3427     -0.3749     -0.4085    
      -0.4430     -0.4753     -0.4955     -0.4818     -0.4543     -0.4217     -0.3861     -0.3486     -0.3102     -0.2718    
      -0.2338     -0.1966     -0.1605     -0.1253     -7.4251E-02  2.1560E-02  0.1897      0.4500      0.7801       1.000    
  25    1.000      0.7717      0.4445      0.2060      6.5445E-02 -1.0038E-02 -4.9080E-02 -7.5544E-02 -0.1024     -0.1298    
      -0.1576     -0.1858     -0.2146     -0.2438     -0.2735     -0.3038     -0.3349     -0.3671     -0.4011     -0.4382    
      -0.4805     -0.5297     -0.5753     -0.5283     -0.4771     -0.4314     -0.3894     -0.3491     -0.3099     -0.2714    
      -0.2338     -0.1970     -0.1612     -0.1264     -7.5795E-02  1.9412E-02  0.1871      0.4479      0.7791       1.000    
  26    1.000      0.7700      0.4391      0.1962      5.2425E-02 -2.4904E-02 -6.4916E-02 -9.2041E-02 -0.1196     -0.1477    
      -0.1761     -0.2051     -0.2345     -0.2644     -0.2948     -0.3257     -0.3573     -0.3898     -0.4243     -0.4628    
      -0.5113     -0.5866     -0.7287     -0.5781     -0.4944     -0.4375     -0.3910     -0.3488     -0.3089     -0.2703    
      -0.2329     -0.1965     -0.1611     -0.1266     -7.6427E-02  1.8112E-02  0.1852      0.4462      0.7783       1.000    
  27    1.000      0.7684      0.4341      0.1868      3.9760E-02 -3.9418E-02 -8.0400E-02 -0.1082     -0.1364     -0.1652    
      -0.1943     -0.2240     -0.2541     -0.2847     -0.3157     -0.3471     -0.3788     -0.4108     -0.4434     -0.4774    
      -0.5149     -0.5577     -0.5961     -0.5419     -0.4842     -0.4335     -0.3882     -0.3463     -0.3065     -0.2682    
      -0.2311     -0.1951     -0.1600     -0.1259     -7.6185E-02  1.7629E-02  0.1840      0.4449      0.7777       1.000    
  28    1.000      0.7669      0.4294      0.1778      2.7467E-02 -5.3567E-02 -9.5518E-02 -0.1240     -0.1529     -0.1823    
      -0.2122     -0.2425     -0.2734     -0.3047     -0.3364     -0.3683     -0.4001     -0.4313     -0.4612     -0.4888    
      -0.5131     -0.5320     -0.5371     -0.5082     -0.4671     -0.4242     -0.3822     -0.3418     -0.3028     -0.2651    
      -0.2284     -0.1928     -0.1581     -0.1243     -7.5105E-02  1.7934E-02  0.1834      0.4439      0.7772       1.000    
  29    1.000      0.7656      0.4250      0.1692      1.5565E-02 -6.7337E-02 -0.1103     -0.1394     -0.1689     -0.1990    
      -0.2296     -0.2607     -0.2923     -0.3244     -0.3569     -0.3896     -0.4221     -0.4533     -0.4814     -0.5035    
      -0.5168     -0.5203     -0.5115     -0.4866     -0.4521     -0.4139     -0.3747     -0.3359     -0.2980     -0.2609    
      -0.2248     -0.1896     -0.1553     -0.1219     -7.3219E-02  1.9000E-02  0.1834      0.4434      0.7768       1.000    
  30    1.000      0.7644      0.4210      0.1610      4.0716E-03 -8.0714E-02 -0.1246     -0.1544     -0.1846     -0.2154    
      -0.2466     -0.2784     -0.3108     -0.3437     -0.3773     -0.4113     -0.4455     -0.4785     -0.5076     -0.5270    
      -0.5303     -0.5211     -0.5022     -0.4745     -0.4410     -0.4045     -0.3670     -0.3294     -0.2923     -0.2559    
      -0.2203     -0.1856     -0.1518     -0.1188     -7.0558E-02  2.0801E-02  0.1841      0.4432      0.7766       1.000    
  31    1.000      0.7634      0.4174      0.1533     -6.9952E-03 -9.3690E-02 -0.1386     -0.1690     -0.1999     -0.2313    
      -0.2632     -0.2957     -0.3288     -0.3626     -0.3972     -0.4330     -0.4700     -0.5079     -0.5435     -0.5669    
      -0.5563     -0.5316     -0.5017     -0.4684     -0.4330     -0.3964     -0.3594     -0.3224     -0.2860     -0.2502    
      -0.2151     -0.1809     -0.1474     -0.1148     -6.7152E-02  2.3312E-02  0.1854      0.4435      0.7765       1.000    
  32    1.000      0.7625      0.4141      0.1461     -1.7617E-02 -0.1063     -0.1521     -0.1832     -0.2148     -0.2468    
      -0.2794     -0.3125     -0.3462     -0.3806     -0.4162     -0.4535     -0.4939     -0.5394     -0.5917     -0.6404    
      -0.5962     -0.5477     -0.5045     -0.4647     -0.4264     -0.3888     -0.3517     -0.3151     -0.2791     -0.2438    
      -0.2092     -0.1754     -0.1424     -0.1102     -6.3028E-02  2.6510E-02  0.1873      0.4441      0.7766       1.000    
  33    1.000      0.7617      0.4112      0.1395     -2.7773E-02 -0.1184     -0.1653     -0.1970     -0.2292     -0.2619    
      -0.2951     -0.3287     -0.3629     -0.3977     -0.4334     -0.4710     -0.5127     -0.5643     -0.6426     -0.7875    
      -0.6396     -0.5584     -0.5039     -0.4594     -0.4192     -0.3808     -0.3436     -0.3073     -0.2717     -0.2368    
      -0.2026     -0.1693     -0.1366     -0.1048     -5.8212E-02  3.0374E-02  0.1897      0.4450      0.7768       1.000    
  34    1.000      0.7612      0.4087      0.1333     -3.7444E-02 -0.1301     -0.1780     -0.2105     -0.2433     -0.2767    
      -0.3104     -0.3446     -0.3791     -0.4139     -0.4490     -0.4846     -0.5216     -0.5620     -0.6077     -0.6488    
      -0.5972     -0.5419     -0.4934     -0.4502     -0.4100     -0.3718     -0.3348     -0.2988     -0.2636     -0.2291    
      -0.1954     -0.1624     -0.1302     -9.8775E-02 -5.2725E-02  3.4883E-02  0.1927      0.4464      0.7771       1.000    
  35    1.000      0.7607      0.4066      0.1278     -4.6605E-02 -0.1414     -0.1904     -0.2235     -0.2571     -0.2911    
      -0.3255     -0.3602     -0.3951     -0.4299     -0.4641     -0.4969     -0.5273     -0.5545     -0.5762     -0.5838    
      -0.5574     -0.5187     -0.4778     -0.4378     -0.3991     -0.3617     -0.3252     -0.2896     -0.2548     -0.2208    
      -0.1875     -0.1550     -0.1232     -9.2086E-02 -4.6589E-02  4.0019E-02  0.1962      0.4481      0.7776       1.000    
  36    1.000      0.7604      0.4050      0.1229     -5.5228E-02 -0.1523     -0.2024     -0.2362     -0.2705     -0.3052    
      -0.3403     -0.3757     -0.4113     -0.4466     -0.4807     -0.5116     -0.5365     -0.5525     -0.5587     -0.5525    
      -0.5299     -0.4977     -0.4615     -0.4242     -0.3871     -0.3506     -0.3148     -0.2797     -0.2454     -0.2118    
      -0.1790     -0.1468     -0.1154     -8.4758E-02 -3.9819E-02  4.5765E-02  0.2003      0.4502      0.7782       1.000    
  37    1.000      0.7603      0.4038      0.1187     -6.3280E-02 -0.1628     -0.2141     -0.2486     -0.2836     -0.3190    
      -0.3548     -0.3911     -0.4279     -0.4648     -0.5005     -0.5323     -0.5545     -0.5604     -0.5539     -0.5375    
      -0.5122     -0.4808     -0.4463     -0.4106     -0.3746     -0.3389     -0.3037     -0.2692     -0.2354     -0.2022    
      -0.1698     -0.1381     -0.1071     -7.6806E-02 -3.2433E-02  5.2105E-02  0.2049      0.4526      0.7789       1.000    
  38    1.000      0.7604      0.4030      0.1152     -7.0718E-02 -0.1729     -0.2254     -0.2607     -0.2964     -0.3324    
      -0.3690     -0.4062     -0.4445     -0.4841     -0.5245     -0.5628     -0.5889     -0.5810     -0.5590     -0.5314    
      -0.5005     -0.4673     -0.4325     -0.3972     -0.3618     -0.3267     -0.2921     -0.2581     -0.2247     -0.1920    
      -0.1600     -0.1287     -9.8142E-02 -6.8244E-02 -2.4443E-02  5.9023E-02  0.2100      0.4553      0.7798       1.000    
  39    1.000      0.7606      0.4028      0.1124     -7.7486E-02 -0.1826     -0.2365     -0.2726     -0.3090     -0.3455    
      -0.3825     -0.4203     -0.4599     -0.5026     -0.5506     -0.6056     -0.6569     -0.6156     -0.5696     -0.5289    
      -0.4914     -0.4552     -0.4195     -0.3840     -0.3489     -0.3142     -0.2800     -0.2464     -0.2135     -0.1812    
      -0.1497     -0.1188     -8.8585E-02 -5.9083E-02 -1.5862E-02  6.6508E-02  0.2156      0.4584      0.7808       1.000    
  40    1.000      0.7609      0.4030      0.1105     -8.3508E-02 -0.1919     -0.2474     -0.2844     -0.3214     -0.3583    
      -0.3952     -0.4328     -0.4722     -0.5159     -0.5699     -0.6508     -0.7987     -0.6536     -0.5752     -0.5232    
      -0.4810     -0.4428     -0.4062     -0.3706     -0.3356     -0.3012     -0.2674     -0.2342     -0.2017     -0.1699    
      -0.1387     -0.1082     -7.8434E-02 -4.9332E-02 -6.7001E-03  7.4545E-02  0.2217      0.4618      0.7820       1.000    
  41    1.000      0.7614      0.4037      0.1095     -8.8677E-02 -0.2010     -0.2583     -0.2964     -0.3340     -0.3710    
      -0.4074     -0.4436     -0.4804     -0.5190     -0.5617     -0.6102     -0.6545     -0.6061     -0.5537     -0.5079    
      -0.4669     -0.4287     -0.3922     -0.3566     -0.3219     -0.2877     -0.2543     -0.2215     -0.1894     -0.1579    
      -0.1271     -9.7075E-02 -6.7695E-02 -3.8998E-02  3.0329E-03  8.3123E-02  0.2282      0.4656      0.7833       1.000    
  42    1.000      0.7621      0.4049      0.1095     -9.2846E-02 -0.2097     -0.2695     -0.3090     -0.3474     -0.3844    
      -0.4199     -0.4540     -0.4868     -0.5181     -0.5476     -0.5726     -0.5841     -0.5613     -0.5258     -0.4877    
      -0.4499     -0.4131     -0.3772     -0.3420     -0.3075     -0.2737     -0.2406     -0.2082     -0.1764     -0.1454    
      -0.1150     -8.5336E-02 -5.6370E-02 -2.8086E-02  1.3330E-02  9.2230E-02  0.2352      0.4696      0.7847       1.000    
  43    1.000      0.7629      0.4066      0.1105     -9.5807E-02 -0.2180     -0.2813     -0.3227     -0.3624     -0.3994    
      -0.4339     -0.4658     -0.4946     -0.5193     -0.5380     -0.5488     -0.5474     -0.5292     -0.5007     -0.4673    
      -0.4322     -0.3967     -0.3615     -0.3268     -0.2926     -0.2591     -0.2263     -0.1942     -0.1629     -0.1322    
      -0.1022     -7.3005E-02 -4.4460E-02 -1.6600E-02  2.4183E-02  0.1019      0.2427      0.4740      0.7862       1.000    
  44    1.000      0.7639      0.4089      0.1126     -9.7276E-02 -0.2258     -0.2938     -0.3383     -0.3800     -0.4171    
      -0.4505     -0.4807     -0.5068     -0.5264     -0.5366     -0.5371     -0.5275     -0.5077     -0.4804     -0.4488    
      -0.4149     -0.3802     -0.3455     -0.3111     -0.2772     -0.2440     -0.2115     -0.1797     -0.1487     -0.1184    
      -8.8888E-02 -6.0074E-02 -3.1965E-02 -4.5421E-03  3.5588E-02  0.1120      0.2505      0.4786      0.7879       1.000    
  45    1.000      0.7651      0.4116      0.1159     -9.6880E-02 -0.2324     -0.3073     -0.3569     -0.4022     -0.4387    
      -0.4704     -0.4997     -0.5257     -0.5431     -0.5451     -0.5356     -0.5179     -0.4938     -0.4647     -0.4325    
      -0.3985     -0.3639     -0.3292     -0.2949     -0.2612     -0.2282     -0.1959     -0.1645     -0.1339     -0.1040    
      -7.4908E-02 -4.6538E-02 -1.8880E-02  8.0874E-03  4.7537E-02  0.1226      0.2588      0.4835      0.7896       1.000    
  46    1.000      0.7664      0.4149      0.1205     -9.4157E-02 -0.2367     -0.3212     -0.3798     -0.4333     -0.4652    
      -0.4926     -0.5223     -0.5533     -0.5751     -0.5650     -0.5423     -0.5150     -0.4848     -0.4522     -0.4181    
      -0.3830     -0.3477     -0.3126     -0.2782     -0.2445     -0.2117     -0.1797     -0.1486     -0.1184     -8.8945E-02
      -6.0291E-02 -3.2387E-02 -5.2046E-03  2.1287E-02  6.0025E-02  0.1337      0.2675      0.4887      0.7915       1.000    
  47    1.000      0.7679      0.4187      0.1264     -8.8599E-02 -0.2367     -0.3329     -0.4078     -0.4856     -0.4964    
      -0.5124     -0.5438     -0.5902     -0.6386     -0.5977     -0.5538     -0.5150     -0.4782     -0.4415     -0.4046    
      -0.3677     -0.3313     -0.2956     -0.2609     -0.2272     -0.1945     -0.1628     -0.1320     -0.1022     -7.3192E-02
      -4.5021E-02 -1.7615E-02  9.0646E-03  3.5053E-02  7.3044E-02  0.1453      0.2765      0.4942      0.7935       1.000    
  48    1.000      0.7695      0.4230      0.1336     -7.9756E-02 -0.2294     -0.3341     -0.4319     -0.5899     -0.5216    
      -0.5171     -0.5502     -0.6239     -0.7723     -0.6322     -0.5603     -0.5130     -0.4716     -0.4312     -0.3912    
      -0.3521     -0.3142     -0.2777     -0.2426     -0.2088     -0.1763     -0.1449     -0.1146     -8.5204E-02 -5.6729E-02
      -2.9084E-02 -2.2146E-03  2.3927E-02  4.9381E-02  8.6584E-02  0.1573      0.2860      0.4999      0.7957       1.000    
  49    1.000      0.7713      0.4278      0.1421     -6.7430E-02 -0.2122     -0.3068     -0.3806     -0.4575     -0.4677    
      -0.4836     -0.5156     -0.5638     -0.6157     -0.5798     -0.5414     -0.5053     -0.4642     -0.4204     -0.3770    
      -0.3354     -0.2959     -0.2586     -0.2231     -0.1894     -0.1571     -0.1261     -9.6269E-02 -6.7440E-02 -3.9533E-02
      -1.2470E-02  1.3815E-02  3.9378E-02  6.4264E-02  0.1006      0.1698      0.2957      0.5059      0.7979       1.000    
  50    1.000      0.7732      0.4331      0.1519     -5.1870E-02 -0.1877     -0.2688     -0.3252     -0.3768     -0.4073    
      -0.4340     -0.4647     -0.4991     -0.5277     -0.5288     -0.5203     -0.5028     -0.4595     -0.4095     -0.3612    
      -0.3166     -0.2756     -0.2376     -0.2021     -0.1686     -0.1367     -0.1063     -7.7041E-02 -4.8850E-02 -2.1593E-02
       4.8228E-03  3.0470E-02  5.5409E-02  7.9687E-02  0.1152      0.1827      0.3058      0.5121      0.8002       1.000    
  51    1.000      0.7752      0.4389      0.1630     -3.3578E-02 -0.1590     -0.2286     -0.2747     -0.3168     -0.3506    
      -0.3806     -0.4104     -0.4401     -0.4669     -0.4873     -0.5083     -0.5256     -0.4614     -0.3969     -0.3417    
      -0.2943     -0.2523     -0.2142     -0.1791     -0.1462     -0.1150     -8.5343E-02 -5.6860E-02 -2.9425E-02 -2.9087E-03
       2.2786E-02  4.7735E-02  7.2001E-02  9.5633E-02  0.1302      0.1960      0.3163      0.5185      0.8027       1.000    
  52    1.000      0.7775      0.4452      0.1752     -1.3123E-02 -0.1280     -0.1887     -0.2283     -0.2651     -0.2978    
      -0.3276     -0.3561     -0.3842     -0.4125     -0.4452     -0.4992     -0.6126     -0.4627     -0.3751     -0.3147    
      -0.2665     -0.2252     -0.1881     -0.1540     -0.1221     -9.2010E-02 -6.3284E-02 -3.5730E-02 -9.1775E-03  1.6499E-02
       4.1395E-02  6.5586E-02  8.9130E-02  0.1121      0.1456      0.2097      0.3270      0.5252      0.8052       1.000    
  53    1.000      0.7798      0.4519      0.1883      8.9657E-03 -9.6128E-02 -0.1499     -0.1847     -0.2176     -0.2479    
      -0.2760     -0.3025     -0.3281     -0.3537     -0.3813     -0.4136     -0.4420     -0.3847     -0.3258     -0.2754    
      -0.2322     -0.1939     -0.1590     -0.1268     -9.6451E-02 -6.7670E-02 -4.0151E-02 -1.3695E-02  1.1847E-02  3.6588E-02
       6.0611E-02  8.3984E-02  0.1068      0.1290      0.1615      0.2237      0.3380      0.5320      0.8078       1.000    
  54    1.000      0.7836      0.4626      0.2095      4.3877E-02 -4.7796E-02 -9.3201E-02 -0.1225     -0.1505     -0.1767    
      -0.2010     -0.2235     -0.2442     -0.2628     -0.2786     -0.2892     -0.2890     -0.2687     -0.2388     -0.2060    
      -0.1733     -0.1418     -0.1118     -8.3163E-02 -5.5752E-02 -2.9413E-02 -4.0073E-03  2.0580E-02  4.4441E-02  6.7649E-02
       9.0263E-02  0.1123      0.1339      0.1550      0.1859      0.2453      0.3549      0.5426      0.8119       1.000    
  55    1.000      0.7918      0.4863      0.2560      0.1176      4.7413E-02  1.4032E-02 -7.2503E-03 -2.7282E-02 -4.5787E-02
      -6.2492E-02 -7.7104E-02 -8.9278E-02 -9.8578E-02 -0.1044     -0.1062     -0.1032     -9.5002E-02 -8.2512E-02 -6.6819E-02
      -4.8947E-02 -2.9692E-02 -9.6261E-03  1.0857E-02  3.1493E-02  5.2112E-02  7.2603E-02  9.2897E-02  0.1130      0.1327    
       0.1523      0.1715      0.1904      0.2091      0.2366      0.2900      0.3901      0.5648      0.8207       1.000    
  56    1.000      0.8113      0.5409      0.3583      0.2644      0.2220      0.2028      0.1910      0.1801      0.1704    
       0.1619      0.1548      0.1492      0.1452      0.1428      0.1422      0.1434      0.1463      0.1508      0.1568    
       0.1642      0.1728      0.1824      0.1928      0.2041      0.2159      0.2282      0.2409      0.2539      0.2672    
       0.2807      0.2943      0.3081      0.3218      0.3425      0.3838      0.4646      0.6126      0.8400       1.000    
  57    1.000      0.8587      0.6646      0.5584      0.5130      0.4943      0.4862      0.4812      0.4768      0.4728    
       0.4694      0.4665      0.4642      0.4625      0.4614      0.4608      0.4609      0.4616      0.4628      0.4646    
       0.4669      0.4698      0.4732      0.4770      0.4813      0.4860      0.4911      0.4966      0.5024      0.5085    
       0.5149      0.5215      0.5284      0.5355      0.5465      0.5694      0.6176      0.7160      0.8844       1.000    
  58    1.000      0.9658      0.8925      0.8590      0.8461      0.8410      0.8389      0.8375      0.8363      0.8353    
       0.8344      0.8336      0.8330      0.8325      0.8321      0.8319      0.8319      0.8320      0.8322      0.8326    
       0.8332      0.8338      0.8347      0.8356      0.8367      0.8379      0.8393      0.8407      0.8423      0.8440    
       0.8458      0.8477      0.8497      0.8518      0.8551      0.8622      0.8781      0.9136      0.9809       1.000    
  59    1.000       1.089       1.102       1.104       1.105       1.105       1.105       1.105       1.105       1.105    
        1.105       1.106       1.106       1.106       1.106       1.106       1.106       1.106       1.106       1.106    
        1.107       1.107       1.107       1.107       1.107       1.107       1.107       1.107       1.108       1.108    
        1.108       1.108       1.108       1.108       1.108       1.109       1.109       1.108       1.094       1.000    
  60    1.000       1.163       1.218       1.234       1.240       1.242       1.243       1.244       1.244       1.245    
        1.245       1.246       1.246       1.246       1.247       1.247       1.247       1.247       1.247       1.248    
        1.248       1.248       1.247       1.247       1.247       1.247       1.247       1.246       1.246       1.246    
        1.245       1.245       1.244       1.244       1.243       1.241       1.235       1.219       1.165       1.000    
  61    1.000       1.195       1.265       1.286       1.294       1.297       1.298       1.299       1.300       1.301    
        1.301       1.302       1.302       1.303       1.303       1.304       1.304       1.304       1.304       1.304    
        1.304       1.304       1.304       1.304       1.304       1.303       1.303       1.303       1.302       1.302    
        1.301       1.300       1.300       1.299       1.297       1.294       1.287       1.265       1.196       1.000    
1
              HEAD IN LAYER   2 AT END OF TIME STEP   1 IN STRESS PERIOD    1
  ---------------------------------------------------------------------------

            1           2           3           4           5           6           7           8           9          10
           11          12          13          14          15          16          17          18          19          20
           21          22          23          24          25          26          27          28          29          30
           31          32          33          34          35          36          37          38          39          40
 ........................................................................................................................
   1    1.000       1.202       1.275       1.298       1.306       1.309       1.310       1.311       1.312       1.313    
        1.313       1.314       1.315       1.315       1.315       1.316       1.316       1.316       1.316       1.316    
        1.316       1.316       1.316       1.316       1.316       1.315       1.315       1.314       1.314       1.313    
        1.313       1.312       1.311       1.310       1.309       1.306       1.298       1.275       1.202       1.000    
   2    1.000       1.174       1.233       1.251       1.257       1.260       1.261       1.261       1.262       1.262    
        1.263       1.263       1.264       1.264       1.264       1.265       1.265       1.265       1.265       1.265    
        1.265       1.265       1.265       1.265       1.264       1.264       1.264       1.263       1.263       1.263    
        1.262       1.261       1.261       1.260       1.259       1.257       1.250       1.232       1.173       1.000    
   3    1.000       1.109       1.132       1.136       1.137       1.138       1.138       1.138       1.138       1.138    
        1.138       1.138       1.138       1.138       1.138       1.138       1.138       1.138       1.138       1.138    
        1.138       1.138       1.138       1.138       1.138       1.137       1.137       1.137       1.137       1.137    
        1.137       1.137       1.136       1.136       1.136       1.135       1.134       1.129       1.106       1.000    
   4    1.000       1.000      0.9512      0.9252      0.9138      0.9088      0.9065      0.9050      0.9036      0.9023    
       0.9010      0.8999      0.8988      0.8978      0.8969      0.8961      0.8954      0.8948      0.8943      0.8939    
       0.8936      0.8934      0.8933      0.8933      0.8935      0.8937      0.8940      0.8945      0.8951      0.8957    
       0.8965      0.8973      0.8983      0.8994      0.9011      0.9051      0.9151      0.9405      0.9938       1.000    
   5    1.000      0.9022      0.7607      0.6835      0.6474      0.6307      0.6229      0.6178      0.6129      0.6082    
       0.6038      0.5995      0.5955      0.5918      0.5883      0.5852      0.5823      0.5798      0.5777      0.5758    
       0.5744      0.5733      0.5727      0.5724      0.5726      0.5732      0.5742      0.5756      0.5775      0.5798    
       0.5826      0.5857      0.5892      0.5931      0.5995      0.6143      0.6501      0.7348      0.8927       1.000    
   6    1.000      0.8532      0.6532      0.5337      0.4730      0.4434      0.4289      0.4193      0.4100      0.4008    
       0.3918      0.3831      0.3746      0.3665      0.3587      0.3513      0.3443      0.3378      0.3319      0.3265    
       0.3219      0.3179      0.3149      0.3127      0.3115      0.3113      0.3123      0.3146      0.3180      0.3227    
       0.3285      0.3355      0.3435      0.3524      0.3669      0.3995      0.4727      0.6187      0.8448       1.000    
   7    1.000      0.8304      0.5996      0.4550      0.3785      0.3398      0.3205      0.3077      0.2949      0.2822    
       0.2695      0.2570      0.2446      0.2324      0.2204      0.2086      0.1971      0.1860      0.1752      0.1649    
       0.1551      0.1460      0.1378      0.1306      0.1248      0.1208      0.1191      0.1202      0.1246      0.1325    
       0.1436      0.1572      0.1727      0.1896      0.2163      0.2717      0.3796      0.5643      0.8239       1.000    
   8    1.000      0.8197      0.5734      0.4156      0.3304      0.2867      0.2647      0.2500      0.2353      0.2206    
       0.2059      0.1911      0.1765      0.1618      0.1473      0.1328      0.1185      0.1042      9.0102E-02  7.6128E-02
       6.2301E-02  4.8626E-02  3.5122E-02  2.1859E-02  9.0435E-03 -2.7966E-03 -1.2495E-02 -1.7808E-02 -1.5277E-02 -1.8964E-03
       1.9061E-02  4.3893E-02  7.0155E-02  9.6540E-02  0.1354      0.2082      0.3356      0.5393      0.8144       1.000    
   9    1.000      0.8145      0.5605      0.3960      0.3063      0.2600      0.2367      0.2210      0.2053      0.1895    
       0.1737      0.1578      0.1419      0.1261      0.1102      9.4320E-02  7.8476E-02  6.2654E-02  4.6847E-02  3.1032E-02
       1.5159E-02 -8.6837E-04 -1.7218E-02 -3.4161E-02 -5.2076E-02 -7.1338E-02 -9.1748E-02 -0.1106     -0.1181     -9.2112E-02
      -5.5099E-02 -1.7344E-02  1.8202E-02  5.1153E-02  9.7105E-02  0.1785      0.3150      0.5275      0.8100       1.000    
  10    1.000      0.8112      0.5521      0.3830      0.2902      0.2422      0.2179      0.2016      0.1852      0.1687    
       0.1521      0.1355      0.1188      0.1021      8.5331E-02  6.8530E-02  5.1698E-02  3.4832E-02  1.7919E-02  9.2729E-04
      -1.6214E-02 -3.3641E-02 -5.1617E-02 -7.0632E-02 -9.1575E-02 -0.1160     -0.1462     -0.1841     -0.2198     -0.1634    
      -0.1054     -5.6056E-02 -1.3936E-02  2.3112E-02  7.3240E-02  0.1596      0.3018      0.5199      0.8071       1.000    
  11    1.000      0.8079      0.5437      0.3700      0.2742      0.2245      0.1992      0.1822      0.1651      0.1479    
       0.1306      0.1132      9.5666E-02  7.8080E-02  6.0414E-02  4.2672E-02  2.4854E-02  6.9583E-03 -1.1027E-02 -2.9127E-02
      -4.7398E-02 -6.5962E-02 -8.5074E-02 -0.1053     -0.1277     -0.1549     -0.1930     -0.2594     -0.4074     -0.2360    
      -0.1470     -8.7666E-02 -4.1100E-02 -1.3986E-03  5.1593E-02  0.1419      0.2891      0.5127      0.8044       1.000    
  12    1.000      0.8046      0.5355      0.3572      0.2583      0.2067      0.1805      0.1628      0.1450      0.1271    
       0.1090      9.0815E-02  7.2489E-02  5.4041E-02  3.5475E-02  1.6791E-02 -2.0089E-03 -2.0924E-02 -3.9956E-02 -5.9107E-02
      -7.8388E-02 -9.7833E-02 -0.1175     -0.1378     -0.1592     -0.1830     -0.2116     -0.2469     -0.2795     -0.2200    
      -0.1589     -0.1066     -6.1499E-02 -2.1633E-02  3.2457E-02  0.1255      0.2771      0.5057      0.8018       1.000    
  13    1.000      0.8015      0.5274      0.3444      0.2424      0.1890      0.1618      0.1435      0.1250      0.1063    
       8.7485E-02  6.8490E-02  4.9336E-02  3.0024E-02  1.0554E-02 -9.0724E-03 -2.8855E-02 -4.8789E-02 -6.8865E-02 -8.9056E-02
      -0.1093     -0.1295     -0.1496     -0.1692     -0.1883     -0.2065     -0.2234     -0.2367     -0.2374     -0.2053    
      -0.1622     -0.1183     -7.6788E-02 -3.8160E-02  1.5741E-02  0.1105      0.2658      0.4990      0.7993       1.000    
  14    1.000      0.7985      0.5194      0.3318      0.2266      0.1714      0.1432      0.1242      0.1050      8.5615E-02
       6.6018E-02  4.6227E-02  2.6243E-02  6.0653E-03 -1.4308E-02 -3.4878E-02 -5.5647E-02 -7.6611E-02 -9.7755E-02 -0.1190    
      -0.1404     -0.1615     -0.1821     -0.2014     -0.2183     -0.2314     -0.2389     -0.2391     -0.2281     -0.2016    
      -0.1663     -0.1278     -8.9288E-02 -5.2091E-02  1.1018E-03  9.6772E-02  0.2552      0.4927      0.7969       1.000    
  15    1.000      0.7955      0.5116      0.3193      0.2110      0.1540      0.1248      0.1051      8.5149E-02  6.5009E-02
       4.4646E-02  2.4059E-02  3.2456E-03 -1.7796E-02 -3.9071E-02 -6.0584E-02 -8.2342E-02 -0.1043     -0.1266     -0.1491    
      -0.1717     -0.1942     -0.2160     -0.2361     -0.2523     -0.2619     -0.2620     -0.2527     -0.2343     -0.2069    
      -0.1736     -0.1374     -0.1006     -6.4384E-02 -1.1850E-02  8.4328E-02  0.2453      0.4868      0.7946       1.000    
  16    1.000      0.7926      0.5039      0.3070      0.1954      0.1366      0.1064      8.6031E-02  6.5406E-02  4.4529E-02
       2.3401E-02  2.0182E-03 -1.9622E-02 -4.1523E-02 -6.3694E-02 -8.6143E-02 -0.1089     -0.1319     -0.1553     -0.1791    
      -0.2032     -0.2276     -0.2518     -0.2746     -0.2931     -0.3018     -0.2945     -0.2757     -0.2496     -0.2183    
      -0.1838     -0.1477     -0.1114     -7.5597E-02 -2.3417E-02  7.3094E-02  0.2361      0.4811      0.7925       1.000    
  17    1.000      0.7899      0.4964      0.2948      0.1801      0.1194      8.8210E-02  6.7151E-02  4.5815E-02  2.4203E-02
       2.3108E-03 -1.9864E-02 -4.2325E-02 -6.5080E-02 -8.8136E-02 -0.1115     -0.1352     -0.1593     -0.1838     -0.2088    
      -0.2346     -0.2613     -0.2891     -0.3176     -0.3438     -0.3580     -0.3385     -0.3061     -0.2701     -0.2330    
      -0.1956     -0.1584     -0.1217     -8.5906E-02 -3.3775E-02  6.3010E-02  0.2277      0.4759      0.7904       1.000    
  18    1.000      0.7872      0.4891      0.2828      0.1649      0.1024      7.0192E-02  4.8448E-02  2.6403E-02  4.0571E-03
      -1.8595E-02 -4.1556E-02 -6.4834E-02 -8.8433E-02 -0.1124     -0.1366     -0.1613     -0.1863     -0.2118     -0.2380    
      -0.2651     -0.2939     -0.3258     -0.3628     -0.4067     -0.4477     -0.3956     -0.3403     -0.2918     -0.2481    
      -0.2075     -0.1687     -0.1313     -9.5239E-02 -4.2986E-02  5.4030E-02  0.2201      0.4710      0.7885       1.000    
  19    1.000      0.7846      0.4821      0.2711      0.1499      8.5531E-02  5.2373E-02  2.9946E-02  7.1958E-03 -1.5881E-02
      -3.9289E-02 -6.3032E-02 -8.7118E-02 -0.1116     -0.1363     -0.1615     -0.1870     -0.2129     -0.2393     -0.2662    
      -0.2940     -0.3237     -0.3574     -0.4012     -0.4723     -0.6241     -0.4555     -0.3679     -0.3086     -0.2604    
      -0.2175     -0.1776     -0.1397     -0.1034     -5.1046E-02  4.6116E-02  0.2132      0.4665      0.7868       1.000    
  20    1.000      0.7822      0.4752      0.2595      0.1352      6.8925E-02  3.4778E-02  1.1670E-02 -1.1784E-02 -3.5587E-02
      -5.9745E-02 -8.4264E-02 -0.1092     -0.1344     -0.1601     -0.1861     -0.2125     -0.2392     -0.2663     -0.2936    
      -0.3213     -0.3494     -0.3791     -0.4123     -0.4510     -0.4860     -0.4279     -0.3673     -0.3143     -0.2674    
      -0.2246     -0.1846     -0.1467     -0.1103     -5.7940E-02  3.9240E-02  0.2070      0.4624      0.7852       1.000    
  21    1.000      0.7798      0.4685      0.2482      0.1207      5.2560E-02  1.7427E-02 -6.3584E-03 -3.0511E-02 -5.5036E-02
      -7.9939E-02 -0.1052     -0.1309     -0.1570     -0.1835     -0.2104     -0.2377     -0.2653     -0.2932     -0.3209    
      -0.3480     -0.3738     -0.3974     -0.4178     -0.4330     -0.4347     -0.4027     -0.3590     -0.3140     -0.2705    
      -0.2291     -0.1897     -0.1521     -0.1159     -6.3670E-02  3.3373E-02  0.2016      0.4587      0.7837       1.000    
  22    1.000      0.7776      0.4621      0.2372      0.1064      3.6458E-02  3.4261E-04 -2.4118E-02 -4.8966E-02 -7.4206E-02
      -9.9845E-02 -0.1259     -0.1524     -0.1793     -0.2066     -0.2344     -0.2627     -0.2913     -0.3202     -0.3488    
      -0.3762     -0.4005     -0.4189     -0.4286     -0.4288     -0.4169     -0.3892     -0.3524     -0.3121     -0.2715    
      -0.2317     -0.1932     -0.1560     -0.1202     -6.8269E-02  2.8484E-02  0.1969      0.4554      0.7823       1.000    
  23    1.000      0.7755      0.4559      0.2265      9.2432E-02  2.0637E-02 -1.6457E-02 -4.1588E-02 -6.7126E-02 -9.3075E-02
      -0.1194     -0.1462     -0.1735     -0.2012     -0.2294     -0.2581     -0.2874     -0.3172     -0.3476     -0.3781    
      -0.4076     -0.4331     -0.4491     -0.4491     -0.4368     -0.4150     -0.3849     -0.3492     -0.3108     -0.2718    
      -0.2332     -0.1954     -0.1588     -0.1233     -7.1791E-02  2.4543E-02  0.1929      0.4525      0.7811       1.000    
  24    1.000      0.7735      0.4500      0.2160      7.8757E-02  5.1181E-03 -3.2951E-02 -5.8751E-02 -8.4973E-02 -0.1116    
      -0.1387     -0.1662     -0.1942     -0.2227     -0.2517     -0.2813     -0.3115     -0.3427     -0.3750     -0.4086    
      -0.4430     -0.4753     -0.4956     -0.4818     -0.4543     -0.4217     -0.3861     -0.3487     -0.3103     -0.2718    
      -0.2339     -0.1967     -0.1605     -0.1254     -7.4296E-02  2.1515E-02  0.1897      0.4500      0.7800       1.000    
  25    1.000      0.7717      0.4444      0.2059      6.5400E-02 -1.0083E-02 -4.9125E-02 -7.5589E-02 -0.1025     -0.1298    
      -0.1576     -0.1859     -0.2146     -0.2438     -0.2735     -0.3039     -0.3350     -0.3672     -0.4012     -0.4383    
      -0.4806     -0.5298     -0.5758     -0.5284     -0.4771     -0.4314     -0.3894     -0.3492     -0.3099     -0.2715    
      -0.2338     -0.1970     -0.1613     -0.1265     -7.5840E-02  1.9367E-02  0.1871      0.4479      0.7791       1.000    
  26    1.000      0.7699      0.4391      0.1962      5.2380E-02 -2.4949E-02 -6.4961E-02 -9.2087E-02 -0.1197     -0.1477    
      -0.1762     -0.2051     -0.2346     -0.2645     -0.2949     -0.3258     -0.3573     -0.3899     -0.4243     -0.4628    
      -0.5114     -0.5871     -0.7432     -0.5786     -0.4944     -0.4376     -0.3910     -0.3488     -0.3089     -0.2704    
      -0.2329     -0.1965     -0.1611     -0.1267     -7.6472E-02  1.8067E-02  0.1852      0.4461      0.7783       1.000    
  27    1.000      0.7683      0.4341      0.1868      3.9715E-02 -3.9463E-02 -8.0445E-02 -0.1082     -0.1365     -0.1652    
      -0.1944     -0.2241     -0.2542     -0.2848     -0.3158     -0.3472     -0.3789     -0.4109     -0.4434     -0.4775    
      -0.5149     -0.5578     -0.5966     -0.5420     -0.4843     -0.4336     -0.3883     -0.3464     -0.3066     -0.2683    
      -0.2312     -0.1951     -0.1600     -0.1259     -7.6230E-02  1.7584E-02  0.1839      0.4448      0.7776       1.000    
  28    1.000      0.7669      0.4294      0.1778      2.7422E-02 -5.3612E-02 -9.5563E-02 -0.1240     -0.1529     -0.1823    
      -0.2122     -0.2426     -0.2734     -0.3047     -0.3364     -0.3683     -0.4001     -0.4314     -0.4612     -0.4888    
      -0.5131     -0.5321     -0.5371     -0.5082     -0.4672     -0.4242     -0.3822     -0.3418     -0.3029     -0.2651    
      -0.2285     -0.1928     -0.1581     -0.1244     -7.5150E-02  1.7889E-02  0.1834      0.4439      0.7771       1.000    
  29    1.000      0.7655      0.4250      0.1692      1.5520E-02 -6.7382E-02 -0.1103     -0.1394     -0.1690     -0.1991    
      -0.2296     -0.2607     -0.2923     -0.3244     -0.3569     -0.3897     -0.4221     -0.4533     -0.4814     -0.5035    
      -0.5168     -0.5204     -0.5116     -0.4866     -0.4522     -0.4139     -0.3748     -0.3360     -0.2980     -0.2609    
      -0.2248     -0.1896     -0.1554     -0.1220     -7.3264E-02  1.8955E-02  0.1834      0.4433      0.7768       1.000    
  30    1.000      0.7644      0.4210      0.1610      4.0265E-03 -8.0759E-02 -0.1247     -0.1544     -0.1847     -0.2154    
      -0.2467     -0.2785     -0.3108     -0.3438     -0.3773     -0.4113     -0.4455     -0.4786     -0.5076     -0.5271    
      -0.5303     -0.5211     -0.5022     -0.4746     -0.4411     -0.4046     -0.3670     -0.3294     -0.2923     -0.2559    
      -0.2204     -0.1857     -0.1518     -0.1188     -7.0603E-02  2.0756E-02  0.1841      0.4432      0.7765       1.000    
  31    1.000      0.7633      0.4173      0.1533     -7.0402E-03 -9.3735E-02 -0.1386     -0.1690     -0.1999     -0.2313    
      -0.2633     -0.2957     -0.3288     -0.3626     -0.3973     -0.4330     -0.4701     -0.5079     -0.5436     -0.5670    
      -0.5563     -0.5317     -0.5017     -0.4685     -0.4331     -0.3965     -0.3594     -0.3225     -0.2860     -0.2502    
      -0.2152     -0.1809     -0.1475     -0.1149     -6.7197E-02  2.3267E-02  0.1853      0.4434      0.7765       1.000    
  32    1.000      0.7624      0.4140      0.1461     -1.7662E-02 -0.1063     -0.1522     -0.1832     -0.2148     -0.2469    
      -0.2794     -0.3125     -0.3462     -0.3807     -0.4162     -0.4535     -0.4939     -0.5395     -0.5918     -0.6409    
      -0.5963     -0.5477     -0.5045     -0.4647     -0.4264     -0.3889     -0.3517     -0.3151     -0.2792     -0.2438    
      -0.2093     -0.1755     -0.1424     -0.1102     -6.3073E-02  2.6465E-02  0.1872      0.4440      0.7765       1.000    
  33    1.000      0.7617      0.4111      0.1394     -2.7818E-02 -0.1184     -0.1653     -0.1971     -0.2293     -0.2620    
      -0.2951     -0.3288     -0.3629     -0.3977     -0.4335     -0.4711     -0.5127     -0.5644     -0.6431     -0.8020    
      -0.6401     -0.5585     -0.5040     -0.4595     -0.4192     -0.3809     -0.3437     -0.3073     -0.2717     -0.2368    
      -0.2027     -0.1693     -0.1367     -0.1049     -5.8257E-02  3.0329E-02  0.1896      0.4450      0.7767       1.000    
  34    1.000      0.7611      0.4086      0.1333     -3.7489E-02 -0.1302     -0.1781     -0.2105     -0.2434     -0.2767    
      -0.3105     -0.3446     -0.3791     -0.4139     -0.4490     -0.4847     -0.5217     -0.5621     -0.6077     -0.6493    
      -0.5973     -0.5420     -0.4935     -0.4502     -0.4101     -0.3719     -0.3349     -0.2988     -0.2636     -0.2292    
      -0.1954     -0.1625     -0.1303     -9.8820E-02 -5.2770E-02  3.4838E-02  0.1926      0.4463      0.7771       1.000    
  35    1.000      0.7607      0.4066      0.1278     -4.6650E-02 -0.1415     -0.1904     -0.2236     -0.2571     -0.2911    
      -0.3255     -0.3602     -0.3951     -0.4300     -0.4641     -0.4969     -0.5274     -0.5545     -0.5762     -0.5839    
      -0.5575     -0.5187     -0.4779     -0.4379     -0.3992     -0.3617     -0.3252     -0.2897     -0.2549     -0.2208    
      -0.1876     -0.1550     -0.1232     -9.2131E-02 -4.6634E-02  3.9974E-02  0.1962      0.4481      0.7775       1.000    
  36    1.000      0.7604      0.4049      0.1229     -5.5273E-02 -0.1524     -0.2025     -0.2363     -0.2706     -0.3052    
      -0.3403     -0.3757     -0.4114     -0.4467     -0.4807     -0.5116     -0.5365     -0.5526     -0.5588     -0.5525    
      -0.5300     -0.4978     -0.4615     -0.4243     -0.3871     -0.3506     -0.3148     -0.2798     -0.2455     -0.2119    
      -0.1790     -0.1469     -0.1155     -8.4803E-02 -3.9864E-02  4.5720E-02  0.2003      0.4501      0.7781       1.000    
  37    1.000      0.7603      0.4037      0.1186     -6.3325E-02 -0.1628     -0.2141     -0.2487     -0.2837     -0.3190    
      -0.3549     -0.3912     -0.4279     -0.4648     -0.5006     -0.5324     -0.5546     -0.5605     -0.5539     -0.5375    
      -0.5122     -0.4809     -0.4464     -0.4106     -0.3746     -0.3389     -0.3038     -0.2692     -0.2354     -0.2023    
      -0.1699     -0.1381     -0.1071     -7.6851E-02 -3.2478E-02  5.2060E-02  0.2049      0.4525      0.7789       1.000    
  38    1.000      0.7603      0.4030      0.1151     -7.0763E-02 -0.1729     -0.2254     -0.2608     -0.2965     -0.3325    
      -0.3690     -0.4062     -0.4445     -0.4841     -0.5245     -0.5629     -0.5890     -0.5810     -0.5590     -0.5315    
      -0.5006     -0.4673     -0.4326     -0.3973     -0.3619     -0.3268     -0.2922     -0.2581     -0.2248     -0.1921    
      -0.1601     -0.1288     -9.8187E-02 -6.8289E-02 -2.4488E-02  5.8978E-02  0.2100      0.4553      0.7798       1.000    
  39    1.000      0.7605      0.4027      0.1124     -7.7531E-02 -0.1826     -0.2365     -0.2727     -0.3090     -0.3456    
      -0.3825     -0.4204     -0.4599     -0.5026     -0.5507     -0.6057     -0.6575     -0.6156     -0.5697     -0.5289    
      -0.4914     -0.4552     -0.4195     -0.3841     -0.3489     -0.3142     -0.2801     -0.2465     -0.2136     -0.1813    
      -0.1497     -0.1188     -8.8630E-02 -5.9128E-02 -1.5907E-02  6.6463E-02  0.2156      0.4584      0.7808       1.000    
  40    1.000      0.7609      0.4029      0.1105     -8.3553E-02 -0.1920     -0.2474     -0.2845     -0.3214     -0.3583    
      -0.3953     -0.4329     -0.4723     -0.5159     -0.5699     -0.6513     -0.8132     -0.6541     -0.5752     -0.5233    
      -0.4811     -0.4428     -0.4063     -0.3706     -0.3357     -0.3013     -0.2675     -0.2343     -0.2018     -0.1699    
      -0.1387     -0.1083     -7.8479E-02 -4.9377E-02 -6.7451E-03  7.4500E-02  0.2217      0.4618      0.7820       1.000    
  41    1.000      0.7614      0.4037      0.1095     -8.8722E-02 -0.2010     -0.2584     -0.2965     -0.3341     -0.3710    
      -0.4075     -0.4437     -0.4804     -0.5190     -0.5617     -0.6103     -0.6550     -0.6061     -0.5538     -0.5079    
      -0.4669     -0.4287     -0.3922     -0.3567     -0.3219     -0.2878     -0.2543     -0.2215     -0.1894     -0.1579    
      -0.1272     -9.7120E-02 -6.7740E-02 -3.9043E-02  2.9879E-03  8.3078E-02  0.2282      0.4655      0.7832       1.000    
  42    1.000      0.7620      0.4049      0.1094     -9.2891E-02 -0.2097     -0.2696     -0.3090     -0.3475     -0.3845    
      -0.4199     -0.4540     -0.4868     -0.5182     -0.5476     -0.5727     -0.5841     -0.5613     -0.5259     -0.4878    
      -0.4500     -0.4132     -0.3772     -0.3420     -0.3076     -0.2738     -0.2406     -0.2082     -0.1765     -0.1454    
      -0.1150     -8.5381E-02 -5.6415E-02 -2.8131E-02  1.3285E-02  9.2185E-02  0.2352      0.4696      0.7846       1.000    
  43    1.000      0.7629      0.4066      0.1105     -9.5852E-02 -0.2181     -0.2813     -0.3228     -0.3624     -0.3995    
      -0.4339     -0.4658     -0.4947     -0.5193     -0.5381     -0.5488     -0.5474     -0.5293     -0.5007     -0.4674    
      -0.4323     -0.3968     -0.3616     -0.3268     -0.2927     -0.2592     -0.2264     -0.1943     -0.1629     -0.1322    
      -0.1023     -7.3050E-02 -4.4505E-02 -1.6646E-02  2.4138E-02  0.1018      0.2426      0.4739      0.7862       1.000    
  44    1.000      0.7639      0.4088      0.1126     -9.7321E-02 -0.2258     -0.2938     -0.3384     -0.3800     -0.4172    
      -0.4505     -0.4807     -0.5069     -0.5265     -0.5367     -0.5371     -0.5276     -0.5078     -0.4805     -0.4488    
      -0.4150     -0.3803     -0.3455     -0.3111     -0.2772     -0.2440     -0.2115     -0.1797     -0.1487     -0.1185    
      -8.8933E-02 -6.0119E-02 -3.2010E-02 -4.5871E-03  3.5543E-02  0.1119      0.2505      0.4786      0.7878       1.000    
  45    1.000      0.7650      0.4116      0.1159     -9.6925E-02 -0.2324     -0.3073     -0.3569     -0.4022     -0.4387    
      -0.4704     -0.4998     -0.5258     -0.5431     -0.5451     -0.5356     -0.5180     -0.4938     -0.4648     -0.4325    
      -0.3986     -0.3639     -0.3292     -0.2949     -0.2612     -0.2282     -0.1960     -0.1646     -0.1339     -0.1041    
      -7.4953E-02 -4.6583E-02 -1.8925E-02  8.0424E-03  4.7492E-02  0.1226      0.2588      0.4835      0.7896       1.000    
  46    1.000      0.7663      0.4149      0.1205     -9.4202E-02 -0.2367     -0.3212     -0.3798     -0.4334     -0.4653    
      -0.4926     -0.5224     -0.5534     -0.5752     -0.5651     -0.5424     -0.5150     -0.4848     -0.4523     -0.4181    
      -0.3830     -0.3477     -0.3127     -0.2783     -0.2446     -0.2117     -0.1798     -0.1487     -0.1184     -8.8990E-02
      -6.0336E-02 -3.2433E-02 -5.2496E-03  2.1241E-02  5.9980E-02  0.1337      0.2674      0.4887      0.7915       1.000    
  47    1.000      0.7678      0.4187      0.1263     -8.8644E-02 -0.2367     -0.3330     -0.4078     -0.4861     -0.4965    
      -0.5125     -0.5438     -0.5902     -0.6391     -0.5978     -0.5538     -0.5150     -0.4782     -0.4416     -0.4046    
      -0.3678     -0.3313     -0.2957     -0.2609     -0.2272     -0.1945     -0.1628     -0.1321     -0.1022     -7.3237E-02
      -4.5066E-02 -1.7660E-02  9.0195E-03  3.5008E-02  7.2999E-02  0.1453      0.2765      0.4941      0.7935       1.000    
  48    1.000      0.7694      0.4230      0.1335     -7.9801E-02 -0.2294     -0.3341     -0.4323     -0.6015     -0.5220    
      -0.5171     -0.5503     -0.6244     -0.7868     -0.6328     -0.5603     -0.5131     -0.4717     -0.4312     -0.3913    
      -0.3522     -0.3143     -0.2778     -0.2427     -0.2089     -0.1764     -0.1450     -0.1146     -8.5249E-02 -5.6774E-02
      -2.9129E-02 -2.2597E-03  2.3882E-02  4.9336E-02  8.6539E-02  0.1573      0.2859      0.4999      0.7956       1.000    
  49    1.000      0.7712      0.4278      0.1421     -6.7476E-02 -0.2123     -0.3068     -0.3806     -0.4580     -0.4678    
      -0.4836     -0.5156     -0.5639     -0.6162     -0.5799     -0.5415     -0.5054     -0.4642     -0.4205     -0.3771    
      -0.3354     -0.2960     -0.2586     -0.2232     -0.1894     -0.1572     -0.1262     -9.6315E-02 -6.7485E-02 -3.9578E-02
      -1.2515E-02  1.3770E-02  3.9333E-02  6.4219E-02  0.1006      0.1698      0.2957      0.5058      0.7978       1.000    
  50    1.000      0.7731      0.4331      0.1519     -5.1915E-02 -0.1878     -0.2688     -0.3252     -0.3768     -0.4073    
      -0.4341     -0.4648     -0.4991     -0.5278     -0.5288     -0.5204     -0.5028     -0.4595     -0.4095     -0.3612    
      -0.3166     -0.2756     -0.2376     -0.2021     -0.1686     -0.1368     -0.1063     -7.7086E-02 -4.8895E-02 -2.1638E-02
       4.7777E-03  3.0425E-02  5.5364E-02  7.9642E-02  0.1151      0.1827      0.3058      0.5120      0.8002       1.000    
  51    1.000      0.7752      0.4389      0.1629     -3.3623E-02 -0.1590     -0.2286     -0.2747     -0.3168     -0.3506    
      -0.3807     -0.4104     -0.4402     -0.4669     -0.4873     -0.5084     -0.5260     -0.4615     -0.3970     -0.3418    
      -0.2943     -0.2523     -0.2143     -0.1792     -0.1462     -0.1151     -8.5388E-02 -5.6905E-02 -2.9470E-02 -2.9537E-03
       2.2741E-02  4.7690E-02  7.1956E-02  9.5588E-02  0.1301      0.1960      0.3162      0.5185      0.8026       1.000    
  52    1.000      0.7774      0.4452      0.1751     -1.3168E-02 -0.1281     -0.1888     -0.2283     -0.2651     -0.2978    
      -0.3277     -0.3562     -0.3842     -0.4125     -0.4452     -0.4997     -0.6257     -0.4632     -0.3752     -0.3147    
      -0.2666     -0.2252     -0.1881     -0.1540     -0.1222     -9.2055E-02 -6.3329E-02 -3.5775E-02 -9.2225E-03  1.6454E-02
       4.1350E-02  6.5541E-02  8.9085E-02  0.1120      0.1456      0.2097      0.3270      0.5251      0.8052       1.000    
  53    1.000      0.7798      0.4519      0.1883      8.9207E-03 -9.6173E-02 -0.1499     -0.1848     -0.2177     -0.2480    
      -0.2760     -0.3025     -0.3282     -0.3538     -0.3814     -0.4136     -0.4425     -0.3848     -0.3258     -0.2754    
      -0.2322     -0.1939     -0.1591     -0.1268     -9.6496E-02 -6.7715E-02 -4.0197E-02 -1.3740E-02  1.1802E-02  3.6543E-02
       6.0566E-02  8.3939E-02  0.1067      0.1289      0.1615      0.2237      0.3380      0.5320      0.8078       1.000    
  54    1.000      0.7835      0.4625      0.2094      4.3832E-02 -4.7842E-02 -9.3246E-02 -0.1226     -0.1505     -0.1767    
      -0.2010     -0.2235     -0.2442     -0.2629     -0.2786     -0.2893     -0.2891     -0.2688     -0.2388     -0.2060    
      -0.1733     -0.1419     -0.1119     -8.3208E-02 -5.5797E-02 -2.9458E-02 -4.0523E-03  2.0535E-02  4.4396E-02  6.7604E-02
       9.0218E-02  0.1123      0.1338      0.1549      0.1859      0.2452      0.3549      0.5425      0.8119       1.000    
  55    1.000      0.7918      0.4862      0.2559      0.1175      4.7368E-02  1.3987E-02 -7.2953E-03 -2.7327E-02 -4.5832E-02
      -6.2537E-02 -7.7149E-02 -8.9323E-02 -9.8623E-02 -0.1045     -0.1063     -0.1032     -9.5047E-02 -8.2557E-02 -6.6864E-02
      -4.8992E-02 -2.9737E-02 -9.6712E-03  1.0812E-02  3.1448E-02  5.2067E-02  7.2558E-02  9.2852E-02  0.1129      0.1327    
       0.1522      0.1714      0.1904      0.2090      0.2366      0.2900      0.3901      0.5647      0.8206       1.000    
  56    1.000      0.8112      0.5409      0.3582      0.2644      0.2219      0.2028      0.1909      0.1801      0.1703    
       0.1619      0.1548      0.1492      0.1451      0.1428      0.1422      0.1433      0.1462      0.1507      0.1568    
       0.1641      0.1727      0.1823      0.1928      0.2040      0.2158      0.2281      0.2409      0.2539      0.2672    
       0.2807      0.2943      0.3080      0.3218      0.3425      0.3838      0.4645      0.6126      0.8400       1.000    
  57    1.000      0.8587      0.6646      0.5583      0.5130      0.4942      0.4861      0.4812      0.4767      0.4728    
       0.4693      0.4665      0.4642      0.4625      0.4613      0.4608      0.4609      0.4615      0.4627      0.4645    
       0.4669      0.4697      0.4731      0.4770      0.4812      0.4860      0.4911      0.4965      0.5023      0.5084    
       0.5148      0.5215      0.5284      0.5355      0.5465      0.5693      0.6176      0.7160      0.8843       1.000    
  58    1.000      0.9657      0.8925      0.8590      0.8461      0.8410      0.8388      0.8375      0.8363      0.8352    
       0.8343      0.8335      0.8329      0.8324      0.8321      0.8319      0.8318      0.8320      0.8322      0.8326    
       0.8331      0.8338      0.8346      0.8356      0.8367      0.8379      0.8392      0.8407      0.8423      0.8440    
       0.8458      0.8477      0.8497      0.8518      0.8551      0.8622      0.8780      0.9136      0.9809       1.000    
  59    1.000       1.089       1.102       1.104       1.105       1.105       1.105       1.105       1.105       1.105    
        1.105       1.106       1.106       1.106       1.106       1.106       1.106       1.106       1.106       1.106    
        1.106       1.107       1.107       1.107       1.107       1.107       1.107       1.107       1.108       1.108    
        1.108       1.108       1.108       1.108       1.108       1.109       1.109       1.108       1.094       1.000    
  60    1.000       1.163       1.217       1.234       1.240       1.242       1.243       1.244       1.244       1.245    
        1.245       1.246       1.246       1.246       1.247       1.247       1.247       1.247       1.247       1.247    
        1.248       1.247       1.247       1.247       1.247       1.247       1.247       1.246       1.246       1.246    
        1.245       1.245       1.244       1.244       1.243       1.241       1.235       1.219       1.165       1.000    
  61    1.000       1.195       1.265       1.286       1.294       1.297       1.298       1.299       1.300       1.301    
        1.301       1.302       1.302       1.303       1.303       1.304       1.304       1.304       1.304       1.304    
        1.304       1.304       1.304       1.304       1.304       1.303       1.303       1.303       1.302       1.302    
        1.301       1.300       1.299       1.299       1.297       1.294       1.287       1.265       1.196       1.000    
1
              HEAD IN LAYER   3 AT END OF TIME STEP   1 IN STRESS PERIOD    1
  ---------------------------------------------------------------------------

            1           2           3           4           5           6           7           8           9          10
           11          12          13          14          15          16          17          18          19          20
           21          22          23          24          25          26          27          28          29          30
           31          32          33          34          35          36          37          38          39          40
 ........................................................................................................................
   1    1.000       1.202       1.275       1.298       1.306       1.309       1.310       1.311       1.312       1.313    
        1.313       1.314       1.315       1.315       1.315       1.316       1.316       1.316       1.316       1.316    
        1.316       1.316       1.316       1.316       1.316       1.315       1.315       1.314       1.314       1.313    
        1.313       1.312       1.311       1.310       1.309       1.306       1.298       1.275       1.202       1.000    
   2    1.000       1.174       1.233       1.251       1.257       1.259       1.261       1.261       1.262       1.262    
        1.263       1.263       1.264       1.264       1.264       1.265       1.265       1.265       1.265       1.265    
        1.265       1.265       1.265       1.265       1.264       1.264       1.264       1.263       1.263       1.263    
        1.262       1.261       1.261       1.260       1.259       1.257       1.250       1.232       1.173       1.000    
   3    1.000       1.109       1.132       1.136       1.137       1.138       1.138       1.138       1.138       1.138    
        1.138       1.138       1.138       1.138       1.138       1.138       1.138       1.138       1.138       1.138    
        1.138       1.138       1.138       1.138       1.137       1.137       1.137       1.137       1.137       1.137    
        1.137       1.137       1.136       1.136       1.136       1.135       1.134       1.129       1.106       1.000    
   4    1.000       1.000      0.9511      0.9252      0.9138      0.9088      0.9065      0.9050      0.9036      0.9023    
       0.9010      0.8999      0.8988      0.8978      0.8969      0.8961      0.8954      0.8948      0.8943      0.8939    
       0.8936      0.8934      0.8933      0.8933      0.8934      0.8937      0.8940      0.8945      0.8950      0.8957    
       0.8965      0.8973      0.8983      0.8994      0.9011      0.9051      0.9151      0.9405      0.9938       1.000    
   5    1.000      0.9021      0.7607      0.6835      0.6474      0.6307      0.6228      0.6178      0.6129      0.6082    
       0.6037      0.5995      0.5955      0.5918      0.5883      0.5852      0.5823      0.5798      0.5776      0.5758    
       0.5744      0.5733      0.5726      0.5724      0.5725      0.5731      0.5742      0.5756      0.5775      0.5798    
       0.5825      0.5857      0.5892      0.5931      0.5995      0.6143      0.6501      0.7348      0.8927       1.000    
   6    1.000      0.8532      0.6532      0.5337      0.4730      0.4434      0.4289      0.4193      0.4099      0.4008    
       0.3918      0.3831      0.3746      0.3665      0.3587      0.3512      0.3443      0.3378      0.3318      0.3265    
       0.3218      0.3179      0.3148      0.3126      0.3114      0.3113      0.3123      0.3145      0.3180      0.3227    
       0.3285      0.3355      0.3435      0.3523      0.3668      0.3995      0.4727      0.6187      0.8448       1.000    
   7    1.000      0.8304      0.5995      0.4550      0.3784      0.3398      0.3205      0.3076      0.2948      0.2821    
       0.2695      0.2570      0.2446      0.2324      0.2204      0.2086      0.1971      0.1859      0.1752      0.1648    
       0.1551      0.1460      0.1377      0.1306      0.1248      0.1208      0.1191      0.1202      0.1246      0.1325    
       0.1435      0.1572      0.1727      0.1896      0.2162      0.2717      0.3795      0.5642      0.8238       1.000    
   8    1.000      0.8197      0.5733      0.4156      0.3303      0.2867      0.2647      0.2500      0.2353      0.2206    
       0.2058      0.1911      0.1764      0.1618      0.1473      0.1328      0.1184      0.1042      9.0078E-02  7.6104E-02
       6.2277E-02  4.8602E-02  3.5098E-02  2.1835E-02  9.0197E-03 -2.8204E-03 -1.2519E-02 -1.7832E-02 -1.5301E-02 -1.9202E-03
       1.9038E-02  4.3869E-02  7.0131E-02  9.6516E-02  0.1354      0.2082      0.3356      0.5392      0.8144       1.000    
   9    1.000      0.8145      0.5605      0.3960      0.3062      0.2600      0.2366      0.2210      0.2052      0.1895    
       0.1736      0.1578      0.1419      0.1260      0.1102      9.4296E-02  7.8452E-02  6.2630E-02  4.6823E-02  3.1008E-02
       1.5135E-02 -8.9212E-04 -1.7242E-02 -3.4184E-02 -5.2100E-02 -7.1362E-02 -9.1772E-02 -0.1107     -0.1181     -9.2137E-02
      -5.5123E-02 -1.7367E-02  1.8178E-02  5.1129E-02  9.7081E-02  0.1784      0.3150      0.5275      0.8100       1.000    
  10    1.000      0.8111      0.5520      0.3830      0.2902      0.2422      0.2179      0.2016      0.1852      0.1687    
       0.1521      0.1355      0.1188      0.1021      8.5308E-02  6.8506E-02  5.1674E-02  3.4808E-02  1.7896E-02  9.0354E-04
      -1.6237E-02 -3.3664E-02 -5.1640E-02 -7.0656E-02 -9.1599E-02 -0.1160     -0.1462     -0.1841     -0.2202     -0.1635    
      -0.1054     -5.6080E-02 -1.3960E-02  2.3088E-02  7.3216E-02  0.1596      0.3017      0.5199      0.8071       1.000    
  11    1.000      0.8078      0.5437      0.3700      0.2742      0.2244      0.1992      0.1822      0.1651      0.1479    
       0.1306      0.1131      9.5642E-02  7.8056E-02  6.0390E-02  4.2648E-02  2.4830E-02  6.9346E-03 -1.1050E-02 -2.9150E-02
      -4.7422E-02 -6.5986E-02 -8.5098E-02 -0.1053     -0.1277     -0.1549     -0.1931     -0.2598     -0.4243     -0.2364    
      -0.1471     -8.7690E-02 -4.1124E-02 -1.4223E-03  5.1569E-02  0.1419      0.2891      0.5126      0.8044       1.000    
  12    1.000      0.8046      0.5354      0.3571      0.2582      0.2067      0.1804      0.1628      0.1450      0.1271    
       0.1090      9.0791E-02  7.2465E-02  5.4018E-02  3.5451E-02  1.6767E-02 -2.0327E-03 -2.0948E-02 -3.9980E-02 -5.9131E-02
      -7.8412E-02 -9.7857E-02 -0.1176     -0.1378     -0.1592     -0.1830     -0.2116     -0.2469     -0.2799     -0.2200    
      -0.1589     -0.1066     -6.1523E-02 -2.1657E-02  3.2434E-02  0.1255      0.2771      0.5057      0.8018       1.000    
  13    1.000      0.8015      0.5273      0.3444      0.2424      0.1890      0.1618      0.1435      0.1250      0.1063    
       8.7461E-02  6.8467E-02  4.9312E-02  3.0000E-02  1.0530E-02 -9.0961E-03 -2.8878E-02 -4.8813E-02 -6.8888E-02 -8.9080E-02
      -0.1093     -0.1296     -0.1496     -0.1693     -0.1883     -0.2065     -0.2234     -0.2367     -0.2374     -0.2053    
      -0.1622     -0.1183     -7.6812E-02 -3.8184E-02  1.5717E-02  0.1105      0.2658      0.4990      0.7992       1.000    
  14    1.000      0.7984      0.5194      0.3318      0.2266      0.1714      0.1432      0.1242      0.1050      8.5591E-02
       6.5994E-02  4.6203E-02  2.6219E-02  6.0415E-03 -1.4332E-02 -3.4902E-02 -5.5670E-02 -7.6634E-02 -9.7779E-02 -0.1191    
      -0.1404     -0.1615     -0.1821     -0.2014     -0.2183     -0.2314     -0.2390     -0.2391     -0.2281     -0.2016    
      -0.1663     -0.1278     -8.9312E-02 -5.2114E-02  1.0781E-03  9.6748E-02  0.2552      0.4927      0.7969       1.000    
  15    1.000      0.7955      0.5115      0.3193      0.2109      0.1539      0.1247      0.1050      8.5125E-02  6.4986E-02
       4.4623E-02  2.4035E-02  3.2219E-03 -1.7820E-02 -3.9095E-02 -6.0608E-02 -8.2365E-02 -0.1044     -0.1266     -0.1491    
      -0.1717     -0.1942     -0.2160     -0.2361     -0.2523     -0.2619     -0.2620     -0.2528     -0.2343     -0.2069    
[...]
      -0.5114     -0.5874     -0.7442     -0.5788     -0.4945     -0.4376     -0.3910     -0.3489     -0.3089     -0.2704    
      -0.2330     -0.1966     -0.1611     -0.1267     -7.6498E-02  1.8041E-02  0.1851      0.4461      0.7783       1.000    
  27    1.000      0.7683      0.4341      0.1867      3.9688E-02 -3.9490E-02 -8.0471E-02 -0.1083     -0.1365     -0.1652    
      -0.1944     -0.2241     -0.2542     -0.2848     -0.3158     -0.3472     -0.3789     -0.4109     -0.4435     -0.4775    
      -0.5149     -0.5578     -0.5968     -0.5420     -0.4843     -0.4336     -0.3883     -0.3464     -0.3066     -0.2683    
      -0.2312     -0.1951     -0.1601     -0.1260     -7.6257E-02  1.7558E-02  0.1839      0.4448      0.7776       1.000    
  28    1.000      0.7668      0.4293      0.1777      2.7396E-02 -5.3638E-02 -9.5589E-02 -0.1240     -0.1530     -0.1824    
      -0.2122     -0.2426     -0.2735     -0.3048     -0.3364     -0.3683     -0.4002     -0.4314     -0.4613     -0.4888    
      -0.5132     -0.5321     -0.5372     -0.5082     -0.4672     -0.4242     -0.3823     -0.3419     -0.3029     -0.2651    
      -0.2285     -0.1928     -0.1582     -0.1244     -7.5177E-02  1.7863E-02  0.1833      0.4439      0.7771       1.000    
  29    1.000      0.7655      0.4250      0.1691      1.5494E-02 -6.7408E-02 -0.1103     -0.1394     -0.1690     -0.1991    
      -0.2297     -0.2608     -0.2923     -0.3244     -0.3569     -0.3897     -0.4222     -0.4534     -0.4814     -0.5035    
      -0.5168     -0.5204     -0.5116     -0.4866     -0.4522     -0.4139     -0.3748     -0.3360     -0.2980     -0.2610    
      -0.2249     -0.1897     -0.1554     -0.1220     -7.3290E-02  1.8929E-02  0.1834      0.4433      0.7767       1.000    
  30    1.000      0.7643      0.4210      0.1610      4.0003E-03 -8.0785E-02 -0.1247     -0.1544     -0.1847     -0.2154    
      -0.2467     -0.2785     -0.3108     -0.3438     -0.3773     -0.4114     -0.4455     -0.4786     -0.5077     -0.5271    
      -0.5303     -0.5211     -0.5022     -0.4746     -0.4411     -0.4046     -0.3670     -0.3294     -0.2923     -0.2560    
      -0.2204     -0.1857     -0.1518     -0.1188     -7.0629E-02  2.0730E-02  0.1840      0.4432      0.7765       1.000    
  31    1.000      0.7633      0.4173      0.1533     -7.0665E-03 -9.3761E-02 -0.1386     -0.1690     -0.2000     -0.2314    
      -0.2633     -0.2958     -0.3288     -0.3626     -0.3973     -0.4331     -0.4701     -0.5079     -0.5436     -0.5670    
      -0.5563     -0.5317     -0.5017     -0.4685     -0.4331     -0.3965     -0.3594     -0.3225     -0.2860     -0.2502    
      -0.2152     -0.1809     -0.1475     -0.1149     -6.7223E-02  2.3241E-02  0.1853      0.4434      0.7764       1.000    
  32    1.000      0.7624      0.4140      0.1461     -1.7688E-02 -0.1063     -0.1522     -0.1833     -0.2148     -0.2469    
      -0.2794     -0.3125     -0.3462     -0.3807     -0.4162     -0.4536     -0.4940     -0.5395     -0.5919     -0.6411    
      -0.5964     -0.5478     -0.5045     -0.4647     -0.4265     -0.3889     -0.3518     -0.3152     -0.2792     -0.2439    
      -0.2093     -0.1755     -0.1425     -0.1102     -6.3099E-02  2.6439E-02  0.1872      0.4440      0.7765       1.000    
  33    1.000      0.7617      0.4111      0.1394     -2.7845E-02 -0.1185     -0.1653     -0.1971     -0.2293     -0.2620    
      -0.2952     -0.3288     -0.3630     -0.3978     -0.4335     -0.4711     -0.5128     -0.5644     -0.6433     -0.8030    
      -0.6403     -0.5585     -0.5040     -0.4595     -0.4192     -0.3809     -0.3437     -0.3073     -0.2717     -0.2368    
      -0.2027     -0.1693     -0.1367     -0.1049     -5.8283E-02  3.0302E-02  0.1896      0.4450      0.7767       1.000    
  34    1.000      0.7611      0.4086      0.1333     -3.7515E-02 -0.1302     -0.1781     -0.2105     -0.2434     -0.2767    
      -0.3105     -0.3447     -0.3792     -0.4140     -0.4491     -0.4847     -0.5217     -0.5621     -0.6078     -0.6496    
      -0.5973     -0.5420     -0.4935     -0.4502     -0.4101     -0.3719     -0.3349     -0.2989     -0.2636     -0.2292    
      -0.1955     -0.1625     -0.1303     -9.8847E-02 -5.2797E-02  3.4812E-02  0.1926      0.4463      0.7770       1.000    
  35    1.000      0.7607      0.4065      0.1277     -4.6676E-02 -0.1415     -0.1905     -0.2236     -0.2572     -0.2911    
      -0.3255     -0.3603     -0.3952     -0.4300     -0.4642     -0.4970     -0.5274     -0.5546     -0.5762     -0.5839    
      -0.5575     -0.5188     -0.4779     -0.4379     -0.3992     -0.3617     -0.3253     -0.2897     -0.2549     -0.2209    
      -0.1876     -0.1550     -0.1232     -9.2157E-02 -4.6660E-02  3.9948E-02  0.1962      0.4480      0.7775       1.000    
  36    1.000      0.7604      0.4049      0.1228     -5.5299E-02 -0.1524     -0.2025     -0.2363     -0.2706     -0.3053    
      -0.3403     -0.3758     -0.4114     -0.4467     -0.4808     -0.5116     -0.5365     -0.5526     -0.5588     -0.5525    
      -0.5300     -0.4978     -0.4616     -0.4243     -0.3872     -0.3506     -0.3148     -0.2798     -0.2455     -0.2119    
      -0.1790     -0.1469     -0.1155     -8.4829E-02 -3.9890E-02  4.5694E-02  0.2002      0.4501      0.7781       1.000    
  37    1.000      0.7603      0.4037      0.1186     -6.3351E-02 -0.1629     -0.2141     -0.2487     -0.2837     -0.3191    
      -0.3549     -0.3912     -0.4280     -0.4648     -0.5006     -0.5324     -0.5546     -0.5605     -0.5539     -0.5375    
      -0.5122     -0.4809     -0.4464     -0.4106     -0.3746     -0.3389     -0.3038     -0.2693     -0.2354     -0.2023    
      -0.1699     -0.1382     -0.1072     -7.6877E-02 -3.2504E-02  5.2033E-02  0.2048      0.4525      0.7789       1.000    
  38    1.000      0.7603      0.4030      0.1151     -7.0789E-02 -0.1729     -0.2255     -0.2608     -0.2965     -0.3325    
      -0.3690     -0.4063     -0.4446     -0.4841     -0.5246     -0.5629     -0.5890     -0.5810     -0.5590     -0.5315    
      -0.5006     -0.4673     -0.4326     -0.3973     -0.3619     -0.3268     -0.2922     -0.2582     -0.2248     -0.1921    
      -0.1601     -0.1288     -9.8213E-02 -6.8315E-02 -2.4514E-02  5.8952E-02  0.2100      0.4553      0.7798       1.000    
  39    1.000      0.7605      0.4027      0.1124     -7.7557E-02 -0.1826     -0.2365     -0.2727     -0.3090     -0.3456    
      -0.3825     -0.4204     -0.4599     -0.5027     -0.5507     -0.6057     -0.6577     -0.6157     -0.5697     -0.5290    
      -0.4915     -0.4553     -0.4195     -0.3841     -0.3490     -0.3143     -0.2801     -0.2465     -0.2136     -0.1813    
      -0.1497     -0.1189     -8.8656E-02 -5.9154E-02 -1.5933E-02  6.6437E-02  0.2156      0.4583      0.7808       1.000    
  40    1.000      0.7608      0.4029      0.1105     -8.3579E-02 -0.1920     -0.2475     -0.2845     -0.3215     -0.3583    
      -0.3953     -0.4329     -0.4723     -0.5160     -0.5700     -0.6516     -0.8142     -0.6544     -0.5753     -0.5233    
      -0.4811     -0.4428     -0.4063     -0.3707     -0.3357     -0.3013     -0.2675     -0.2343     -0.2018     -0.1699    
      -0.1388     -0.1083     -7.8505E-02 -4.9403E-02 -6.7713E-03  7.4474E-02  0.2216      0.4618      0.7819       1.000    
  41    1.000      0.7613      0.4036      0.1095     -8.8748E-02 -0.2010     -0.2584     -0.2965     -0.3341     -0.3711    
      -0.4075     -0.4437     -0.4804     -0.5191     -0.5617     -0.6103     -0.6552     -0.6062     -0.5538     -0.5079    
      -0.4669     -0.4288     -0.3922     -0.3567     -0.3219     -0.2878     -0.2544     -0.2216     -0.1894     -0.1580    
      -0.1272     -9.7146E-02 -6.7766E-02 -3.9069E-02  2.9617E-03  8.3052E-02  0.2282      0.4655      0.7832       1.000    
  42    1.000      0.7620      0.4048      0.1094     -9.2917E-02 -0.2098     -0.2696     -0.3091     -0.3475     -0.3845    
      -0.4200     -0.4541     -0.4868     -0.5182     -0.5477     -0.5727     -0.5842     -0.5614     -0.5259     -0.4878    
      -0.4500     -0.4132     -0.3772     -0.3421     -0.3076     -0.2738     -0.2407     -0.2082     -0.1765     -0.1454    
      -0.1151     -8.5408E-02 -5.6441E-02 -2.8158E-02  1.3258E-02  9.2159E-02  0.2352      0.4695      0.7846       1.000    
  43    1.000      0.7629      0.4066      0.1104     -9.5878E-02 -0.2181     -0.2813     -0.3228     -0.3624     -0.3995    
      -0.4339     -0.4658     -0.4947     -0.5194     -0.5381     -0.5488     -0.5475     -0.5293     -0.5008     -0.4674    
      -0.4323     -0.3968     -0.3616     -0.3268     -0.2927     -0.2592     -0.2264     -0.1943     -0.1629     -0.1323    
      -0.1023     -7.3076E-02 -4.4532E-02 -1.6672E-02  2.4112E-02  0.1018      0.2426      0.4739      0.7861       1.000    
  44    1.000      0.7639      0.4088      0.1125     -9.7347E-02 -0.2259     -0.2939     -0.3384     -0.3800     -0.4172    
      -0.4506     -0.4808     -0.5069     -0.5265     -0.5367     -0.5372     -0.5276     -0.5078     -0.4805     -0.4488    
      -0.4150     -0.3803     -0.3455     -0.3111     -0.2773     -0.2440     -0.2115     -0.1798     -0.1488     -0.1185    
      -8.8959E-02 -6.0145E-02 -3.2036E-02 -4.6133E-03  3.5516E-02  0.1119      0.2505      0.4785      0.7878       1.000    
  45    1.000      0.7650      0.4116      0.1159     -9.6951E-02 -0.2325     -0.3073     -0.3569     -0.4023     -0.4388    
      -0.4704     -0.4998     -0.5258     -0.5431     -0.5451     -0.5356     -0.5180     -0.4938     -0.4648     -0.4326    
      -0.3986     -0.3640     -0.3293     -0.2950     -0.2612     -0.2282     -0.1960     -0.1646     -0.1339     -0.1041    
      -7.4979E-02 -4.6609E-02 -1.8952E-02  8.0162E-03  4.7466E-02  0.1225      0.2587      0.4835      0.7896       1.000    
  46    1.000      0.7663      0.4148      0.1204     -9.4228E-02 -0.2368     -0.3213     -0.3798     -0.4334     -0.4653    
      -0.4926     -0.5224     -0.5534     -0.5752     -0.5651     -0.5424     -0.5150     -0.4848     -0.4523     -0.4181    
      -0.3830     -0.3477     -0.3127     -0.2783     -0.2446     -0.2118     -0.1798     -0.1487     -0.1185     -8.9016E-02
      -6.0362E-02 -3.2459E-02 -5.2759E-03  2.1215E-02  5.9954E-02  0.1337      0.2674      0.4887      0.7915       1.000    
  47    1.000      0.7678      0.4186      0.1263     -8.8670E-02 -0.2368     -0.3330     -0.4079     -0.4863     -0.4966    
      -0.5125     -0.5438     -0.5903     -0.6393     -0.5978     -0.5539     -0.5151     -0.4783     -0.4416     -0.4047    
      -0.3678     -0.3314     -0.2957     -0.2609     -0.2272     -0.1945     -0.1628     -0.1321     -0.1022     -7.3264E-02
      -4.5092E-02 -1.7686E-02  8.9933E-03  3.4982E-02  7.2973E-02  0.1452      0.2765      0.4941      0.7935       1.000    
  48    1.000      0.7694      0.4229      0.1335     -7.9827E-02 -0.2294     -0.3342     -0.4325     -0.6023     -0.5222    
      -0.5171     -0.5503     -0.6246     -0.7878     -0.6330     -0.5604     -0.5131     -0.4717     -0.4312     -0.3913    
      -0.3522     -0.3143     -0.2778     -0.2427     -0.2089     -0.1764     -0.1450     -0.1146     -8.5276E-02 -5.6800E-02
      -2.9155E-02 -2.2859E-03  2.3856E-02  4.9310E-02  8.6513E-02  0.1573      0.2859      0.4998      0.7956       1.000    
  49    1.000      0.7712      0.4278      0.1420     -6.7502E-02 -0.2123     -0.3068     -0.3807     -0.4581     -0.4678    
      -0.4837     -0.5157     -0.5639     -0.6164     -0.5799     -0.5415     -0.5054     -0.4643     -0.4205     -0.3771    
      -0.3355     -0.2960     -0.2586     -0.2232     -0.1895     -0.1572     -0.1262     -9.6341E-02 -6.7511E-02 -3.9605E-02
      -1.2541E-02  1.3744E-02  3.9307E-02  6.4193E-02  0.1006      0.1698      0.2957      0.5058      0.7978       1.000    
  50    1.000      0.7731      0.4331      0.1519     -5.1941E-02 -0.1878     -0.2689     -0.3253     -0.3769     -0.4073    
      -0.4341     -0.4648     -0.4992     -0.5278     -0.5288     -0.5204     -0.5029     -0.4595     -0.4096     -0.3613    
      -0.3166     -0.2756     -0.2377     -0.2022     -0.1686     -0.1368     -0.1064     -7.7113E-02 -4.8921E-02 -2.1664E-02
       4.7515E-03  3.0399E-02  5.5338E-02  7.9616E-02  0.1151      0.1827      0.3058      0.5120      0.8002       1.000    
  51    1.000      0.7752      0.4389      0.1629     -3.3649E-02 -0.1591     -0.2286     -0.2748     -0.3168     -0.3507    
      -0.3807     -0.4105     -0.4402     -0.4670     -0.4874     -0.5085     -0.5262     -0.4615     -0.3970     -0.3418    
      -0.2943     -0.2524     -0.2143     -0.1792     -0.1463     -0.1151     -8.5415E-02 -5.6931E-02 -2.9496E-02 -2.9799E-03
       2.2714E-02  4.7664E-02  7.1930E-02  9.5562E-02  0.1301      0.1960      0.3162      0.5184      0.8026       1.000    
  52    1.000      0.7774      0.4451      0.1751     -1.3194E-02 -0.1281     -0.1888     -0.2284     -0.2652     -0.2978    
      -0.3277     -0.3562     -0.3843     -0.4125     -0.4453     -0.4999     -0.6266     -0.4634     -0.3752     -0.3148    
      -0.2666     -0.2252     -0.1882     -0.1541     -0.1222     -9.2081E-02 -6.3355E-02 -3.5801E-02 -9.2487E-03  1.6427E-02
       4.1324E-02  6.5514E-02  8.9059E-02  0.1120      0.1456      0.2096      0.3269      0.5251      0.8051       1.000    
  53    1.000      0.7798      0.4518      0.1883      8.8945E-03 -9.6199E-02 -0.1499     -0.1848     -0.2177     -0.2480    
      -0.2760     -0.3026     -0.3282     -0.3538     -0.3814     -0.4137     -0.4427     -0.3849     -0.3258     -0.2755    
      -0.2322     -0.1939     -0.1591     -0.1268     -9.6522E-02 -6.7741E-02 -4.0223E-02 -1.3766E-02  1.1776E-02  3.6516E-02
       6.0540E-02  8.3913E-02  0.1067      0.1289      0.1615      0.2237      0.3379      0.5319      0.8078       1.000    
  54    1.000      0.7835      0.4625      0.2094      4.3806E-02 -4.7868E-02 -9.3272E-02 -0.1226     -0.1506     -0.1767    
      -0.2011     -0.2236     -0.2443     -0.2629     -0.2787     -0.2893     -0.2891     -0.2688     -0.2388     -0.2060    
      -0.1734     -0.1419     -0.1119     -8.3234E-02 -5.5823E-02 -2.9484E-02 -4.0785E-03  2.0508E-02  4.4369E-02  6.7578E-02
       9.0192E-02  0.1123      0.1338      0.1549      0.1858      0.2452      0.3549      0.5425      0.8119       1.000    
  55    1.000      0.7918      0.4862      0.2559      0.1175      4.7342E-02  1.3961E-02 -7.3216E-03 -2.7353E-02 -4.5859E-02
      -6.2564E-02 -7.7176E-02 -8.9350E-02 -9.8650E-02 -0.1045     -0.1063     -0.1032     -9.5073E-02 -8.2583E-02 -6.6891E-02
      -4.9019E-02 -2.9763E-02 -9.6974E-03  1.0785E-02  3.1422E-02  5.2041E-02  7.2531E-02  9.2826E-02  0.1129      0.1327    
       0.1522      0.1714      0.1904      0.2090      0.2366      0.2900      0.3901      0.5647      0.8206       1.000    
  56    1.000      0.8112      0.5409      0.3582      0.2643      0.2219      0.2028      0.1909      0.1800      0.1703    
       0.1618      0.1547      0.1491      0.1451      0.1428      0.1422      0.1433      0.1462      0.1507      0.1567    
       0.1641      0.1727      0.1823      0.1928      0.2040      0.2158      0.2281      0.2408      0.2539      0.2672    
       0.2807      0.2943      0.3080      0.3218      0.3425      0.3838      0.4645      0.6125      0.8399       1.000    
  57    1.000      0.8586      0.6645      0.5583      0.5130      0.4942      0.4861      0.4812      0.4767      0.4727    
       0.4693      0.4664      0.4641      0.4624      0.4613      0.4608      0.4608      0.4615      0.4627      0.4645    
       0.4669      0.4697      0.4731      0.4769      0.4812      0.4859      0.4910      0.4965      0.5023      0.5084    
       0.5148      0.5215      0.5284      0.5355      0.5464      0.5693      0.6175      0.7160      0.8843       1.000    
  58    1.000      0.9657      0.8924      0.8590      0.8461      0.8410      0.8388      0.8375      0.8363      0.8352    
       0.8343      0.8335      0.8329      0.8324      0.8321      0.8319      0.8318      0.8319      0.8322      0.8326    
       0.8331      0.8338      0.8346      0.8355      0.8366      0.8378      0.8392      0.8406      0.8422      0.8439    
       0.8457      0.8476      0.8497      0.8518      0.8551      0.8622      0.8780      0.9136      0.9809       1.000    
  59    1.000       1.089       1.102       1.104       1.105       1.105       1.105       1.105       1.105       1.105    
        1.105       1.105       1.106       1.106       1.106       1.106       1.106       1.106       1.106       1.106    
        1.106       1.107       1.107       1.107       1.107       1.107       1.107       1.107       1.107       1.108    
        1.108       1.108       1.108       1.108       1.108       1.109       1.109       1.108       1.094       1.000    
  60    1.000       1.163       1.217       1.234       1.240       1.242       1.243       1.243       1.244       1.245    
        1.245       1.246       1.246       1.246       1.247       1.247       1.247       1.247       1.247       1.247    
        1.247       1.247       1.247       1.247       1.247       1.247       1.247       1.246       1.246       1.246    
        1.245       1.245       1.244       1.244       1.243       1.241       1.235       1.219       1.165       1.000    
  61    1.000       1.195       1.265       1.286       1.294       1.297       1.298       1.299       1.300       1.301    
        1.301       1.302       1.302       1.303       1.303       1.304       1.304       1.304       1.304       1.304    
        1.304       1.304       1.304       1.304       1.304       1.303       1.303       1.303       1.302       1.302    
        1.301       1.300       1.299       1.299       1.297       1.294       1.287       1.265       1.196       1.000    
1
  VOLUMETRIC BUDGET FOR ENTIRE MODEL AT END OF TIME STEP    1, STRESS PERIOD   1
  ------------------------------------------------------------------------------

     CUMULATIVE VOLUMES      L**3       RATES FOR THIS TIME STEP      L**3/T
     ------------------                 ------------------------

           IN:                                      IN:
           ---                                      ---
             STORAGE =           0.0000               STORAGE =           0.0000
       CONSTANT HEAD =    31124126.0000         CONSTANT HEAD =       31124.1270
               WELLS =           0.0000                 WELLS =           0.0000
            RECHARGE =   177178800.0000              RECHARGE =      177178.7969

            TOTAL IN =   208302928.0000              TOTAL IN =      208302.9219

          OUT:                                     OUT:
          ----                                     ----
             STORAGE =           0.0000               STORAGE =           0.0000
       CONSTANT HEAD =    60231924.0000         CONSTANT HEAD =       60231.9258
               WELLS =   148071008.0000                 WELLS =      148071.0000
            RECHARGE =           0.0000              RECHARGE =           0.0000

           TOTAL OUT =   208302928.0000             TOTAL OUT =      208302.9219

            IN - OUT =           0.0000              IN - OUT =           0.0000

 PERCENT DISCREPANCY =           0.00     PERCENT DISCREPANCY =           0.00






         TIME SUMMARY AT END OF TIME STEP    1 IN STRESS PERIOD    1
                    SECONDS     MINUTES      HOURS       DAYS        YEARS
                    -----------------------------------------------------------
   TIME STEP LENGTH 8.64000E+07 1.44000E+06  24000.      1000.0      2.7379    
 STRESS PERIOD TIME 8.64000E+07 1.44000E+06  24000.      1000.0      2.7379    
         TOTAL TIME 8.64000E+07 1.44000E+06  24000.      1000.0      2.7379    
1

 Run end date and time (yyyy/mm/dd hh:mm:ss): 2019/07/16 16:12:17
 Elapsed run time:  0.096 Seconds

